#
#	File Created by: Spartan '14 Export
#

@<TRIPOS>MOLECULE
*****
69 79
SMALL
USER_CHARGES


@<TRIPOS>ATOM
    1   C1        -2.859891664    -2.862064569    -1.400030265     C.2   1  *****    0.081759
    2   C2        -4.103498772    -2.492819940    -0.852845775     C.2   1  *****   -0.065916
    3   C3        -4.179599288    -1.445346284     0.040866237     C.2   1  *****   -0.282091
    4   C4        -2.995985242    -0.778407351     0.406922951     C.2   1  *****    0.304451
    5   N5        -1.817957929    -1.135525142    -0.070787995       N   1  *****   -0.463119
    6   C6        -1.736940028    -2.133565673    -0.956116124     C.2   1  *****    0.245715
    7   C7        -1.443400541    -4.147958859    -2.905879977     C.2   1  *****   -0.206140
    8   C8        -2.671211983    -3.894758357    -2.373039943     C.2   1  *****   -0.222305
    9   C9        -0.435504921    -2.423299384    -1.493679034     C.2   1  *****    0.293134
   10   C10       -0.291356600    -3.401113522    -2.501151115     C.2   1  *****    0.037609
   11   C11        0.990671241    -3.534663924    -3.064772919     C.2   1  *****   -0.018238
   12   N12        0.584777611    -1.680164179    -1.053032231       N   1  *****   -0.560373
   13   C13        1.779016480    -1.793542892    -1.610605344     C.2   1  *****    0.501011
   14   C14        2.020557845    -2.717275208    -2.642589523     C.2   1  *****   -0.396005
   15   C15       -2.864547971     0.298067885     1.450478724     C.2   1  *****    0.464382
   16   N16       -3.846373213     1.202748102     1.640886147     N.3   1  *****   -0.189991
   17   O17       -1.836815829     0.299920185     2.142435210       O   1  *****   -0.534977
   18   C18        2.710282018    -0.689988522    -1.159694509     C.2   1  *****    0.364052
   19   N19        4.047365184    -0.813667084    -1.321931151     N.3   1  *****   -0.153682
   20   O20        2.174455704     0.346868713    -0.750674942       O   1  *****   -0.569013
   21   C21       -3.641055404     2.190390047     2.707647714     C.3   1  *****   -0.561334
   22   C22        4.753250881    -2.081049929    -1.141543583     C.3   1  *****   -0.646058
   23   N23        3.142191559    -0.885750494     1.884993077       N   1  *****    0.899960
   24   N24       -0.542096417     2.492576172     0.649253842       N   1  *****    0.933162
   25   N25       -0.136146014    -2.229445624     3.108444730       N   1  *****    0.853186
   26   Nd26       0.406627374    -0.216917351     1.118000891      Nd   1  *****    1.897385
   27   O27        2.384197224    -1.724216736     1.280715808       O   1  *****   -0.589682
   28   O28        2.638651283     0.249932289     2.124283900       O   1  *****   -0.522276
   29   O29       -0.796193362     1.562014027    -0.194994841       O   1  *****   -0.634844
   30   O30        0.313949664     2.211401301     1.545306503       O   1  *****   -0.555928
   31   O31       -0.406528615    -2.417614098     1.869220120       O   1  *****   -0.576708
   32   O32        0.395298749    -1.102220524     3.387797378       O   1  *****   -0.568277
   33   O33        4.295324999    -1.169320828     2.173278339       O   1  *****   -0.450567
   34   O34       -1.117511011     3.565059996     0.605122454       O   1  *****   -0.444982
   35   O35       -0.375008279    -3.064463160     3.952291653       O   1  *****   -0.411686
   36   C36       -4.746450217     1.561876762     0.588141118     C.2   1  *****    0.385159
   37   C37       -6.122847377     1.501261622     0.797286496     C.2   1  *****   -0.231871
   38   C38       -4.234925656     2.029635551    -0.622699568     C.2   1  *****   -0.240470
   39   C39       -5.106102665     2.400327131    -1.640392814     C.2   1  *****   -0.169882
   40   C40       -6.477803953     2.318203036    -1.429234372     C.2   1  *****    0.136924
   41   C41       -6.995900626     1.879261518    -0.214194864     C.2   1  *****   -0.175542
   42   Cl42      -7.574779220     2.780601546    -2.706783171      Cl   1  *****   -0.105749
   43   C43        4.848704497     0.381685306    -1.274584886     C.2   1  *****    0.408986
   44   C44        5.377274081     0.860425736    -0.079106572     C.2   1  *****   -0.249749
   45   C45        5.108284287     1.039762645    -2.473094923     C.2   1  *****   -0.256613
   46   C46        5.898369639     2.181957666    -2.487527840     C.2   1  *****   -0.156326
   47   C47        6.422809945     2.652398724    -1.289615304     C.2   1  *****    0.135654
   48   C48        6.167802012     2.002979314    -0.087235291     C.2   1  *****   -0.150913
   49   Cl49       7.418602447     4.088476353    -1.298477277      Cl   1  *****   -0.114412
   50   H50       -5.000359564    -3.030739468    -1.143868169       H   1  *****    0.143371
   51   H51       -5.131116640    -1.142665448     0.458043942       H   1  *****    0.139904
   52   H52       -1.322847975    -4.918420700    -3.660730631       H   1  *****    0.166403
   53   H53       -3.535398640    -4.465737831    -2.697354694       H   1  *****    0.169190
   54   H54        1.156156194    -4.259629131    -3.855876766       H   1  *****    0.136265
   55   H55        2.993702593    -2.772488087    -3.114154116       H   1  *****    0.196865
   56   H56       -2.941007653     2.963997340     2.375730961       H   1  *****    0.208318
   57   H57       -3.230138789     1.691343559     3.583736973       H   1  *****    0.233008
   58   H58       -4.603249584     2.643228643     2.945919737       H   1  *****    0.199041
   59   H59        5.426217355    -2.273385716    -1.981626069       H   1  *****    0.199395
   60   H60        4.041451515    -2.896907616    -1.033877243       H   1  *****    0.223088
   61   H61        5.329781842    -2.033427640    -0.213482936       H   1  *****    0.236245
   62   H62       -6.508254846     1.150311991     1.749290672       H   1  *****    0.154123
   63   H63       -3.159637318     2.121468613    -0.752251038       H   1  *****    0.171737
   64   H64       -4.721881086     2.764876948    -2.585797054       H   1  *****    0.164499
   65   H65       -8.068087918     1.830779381    -0.066897233       H   1  *****    0.157326
   66   H66        5.163220916     0.358054689     0.858123959       H   1  *****    0.177638
   67   H67        4.686310786     0.657038189    -3.396505915       H   1  *****    0.147002
   68   H68        6.104726877     2.702076637    -3.415158541       H   1  *****    0.151992
   69   H69        6.574493183     2.391995906     0.838553460       H   1  *****    0.157778


@<TRIPOS>BOND
    1      1      2    2
    2      2      3    1
    3      3      4    2
    4      4      5    1
    5      5      6    2
    6      8      1    1
    7      1      6    1
    8      6      9    1
    9      7      8    2
   10      7     10    1
   11     11     10    2
   12     10      9    1
   13      9     12    2
   14     11     14    1
   15     12     13    1
   16     13     14    2
   17      4     15    1
   18     15     16    1
   19     15     17    2
   20     13     18    1
   21     18     19    1
   22     18     20    2
   23     16     21    1
   24     19     22    1
   25     23     27    2
   26     23     28    2
   27     24     29    2
   28     24     30    2
   29     25     31    2
   30     25     32    2
   31     23     33    1
   32     24     34    1
   33     25     35    1
   34      5     26    1
   35     12     26    1
   36     17     26    1
   37     20     26    1
   38     27     26    1
   39     28     26    1
   40     30     26    1
   41     29     26    1
   42     32     26    1
   43     31     26    1
   44     37     36    2
   45     36     38    1
   46     37     41    1
   47     38     39    2
   48     39     40    1
   49     40     41    2
   50     40     42    1
   51     16     36    1
   52     44     43    2
   53     43     45    1
   54     44     48    1
   55     45     46    2
   56     46     47    1
   57     47     48    2
   58     47     49    1
   59     19     43    1
   60      2     50    1
   61      3     51    1
   62      7     52    1
   63      8     53    1
   64     11     54    1
   65     14     55    1
   66     21     56    1
   67     21     57    1
   68     21     58    1
   69     22     59    1
   70     22     60    1
   71     22     61    1
   72     37     62    1
   73     38     63    1
   74     39     64    1
   75     41     65    1
   76     44     66    1
   77     45     67    1
   78     46     68    1
   79     48     69    1
#
#	File Created by: Spartan '14 Export
#

@<TRIPOS>MOLECULE
*****
69 79
SMALL
USER_CHARGES


@<TRIPOS>ATOM
    1   C1        -2.818316837    -3.029431949    -1.014482706     C.2   1  *****    0.058954
    2   C2        -4.076709542    -2.613243781    -0.540671505     C.2   1  *****   -0.063829
    3   C3        -4.187686432    -1.446969500     0.187469490     C.2   1  *****   -0.246297
    4   C4        -3.023827666    -0.705963903     0.459770482     C.2   1  *****    0.233034
    5   N5        -1.830090654    -1.106486067     0.060277319       N   1  *****   -0.428345
    6   C6        -1.715382463    -2.221672005    -0.667088757     C.2   1  *****    0.267119
    7   C7        -1.357679535    -4.486653258    -2.306160141     C.2   1  *****   -0.206116
    8   C8        -2.597070902    -4.186292446    -1.827962680     C.2   1  *****   -0.202122
    9   C9        -0.400768865    -2.556996670    -1.144090853     C.2   1  *****    0.263744
   10   C10       -0.225634399    -3.665581498    -2.000782065     C.2   1  *****    0.052228
   11   C11        1.065275005    -3.852594073    -2.527129395     C.2   1  *****   -0.029817
   12   N12        0.599107787    -1.737245187    -0.803999687       N   1  *****   -0.559026
   13   C13        1.802931672    -1.908404974    -1.327157706     C.2   1  *****    0.500813
   14   C14        2.075168428    -2.964329056    -2.213120147     C.2   1  *****   -0.375702
   15   C15       -2.936062827     0.533807218     1.306863674     C.2   1  *****    0.522049
   16   N16       -3.940325686     1.440917773     1.306582751     N.3   1  *****   -0.217104
   17   O17       -1.932813289     0.679819591     2.015230878       O   1  *****   -0.534283
   18   C18        2.709640758    -0.737795312    -1.022667174     C.2   1  *****    0.375452
   19   N19        4.055363933    -0.875030749    -1.102170669     N.3   1  *****   -0.170579
   20   O20        2.152854708     0.343364266    -0.801144957       O   1  *****   -0.560871
   21   C21       -3.795287125     2.597221329     2.202057450     C.3   1  *****   -0.516132
   22   C22        4.737129423    -2.130888275    -0.770621465     C.3   1  *****   -0.555859
   23   N23        3.110272346    -0.425955906     1.956311663       N   1  *****    0.878528
   24   N24       -0.644332292     2.606001035     0.175582243       N   1  *****    0.934913
   25   N25       -0.192352178    -1.568291591     3.436126666       N   1  *****    0.857262
   26   Nd26       0.347901792     0.040522987     1.119193325      Nd   1  *****    1.878796
   27   O27        2.355939880    -1.374842555     1.539849726       O   1  *****   -0.581531
   28   O28        2.567972416     0.724451165     2.012404054       O   1  *****   -0.507285
   29   O29       -0.869094475     1.538867537    -0.499886760       O   1  *****   -0.641529
   30   O30        0.211662986     2.501530386     1.108693742       O   1  *****   -0.558222
   31   O31       -0.435011287    -1.984823904     2.246315899       O   1  *****   -0.581577
   32   O32        0.315396263    -0.397848683     3.511546073       O   1  *****   -0.567801
   33   O33        4.280320970    -0.610532081     2.231167724       O   1  *****   -0.436484
   34   O34       -1.245982080     3.639747567    -0.051732338       O   1  *****   -0.438165
   35   O35       -0.435321189    -2.238694993     4.412882076       O   1  *****   -0.403233
   36   C36       -4.774800478     1.613761685     0.163369198     C.2   1  *****    0.113724
   37   C37       -6.164443274     1.556206737     0.291366853     C.2   1  *****    0.225671
   38   C38       -4.219783020     1.897148993    -1.082870773     C.2   1  *****    0.033880
   39   C39       -5.082287259     2.073775267    -2.155483997     C.2   1  *****   -0.456638
   40   C40       -6.457147603     1.971710054    -1.928227416     C.2   1  *****    0.513971
   41   N41       -6.997235787     1.724363456    -0.726363972     N.2   1  *****   -0.523073
   42   C42       -7.371242614     2.130972692    -3.025413281     C.1   1  *****    0.151508
   43   N43       -8.081697349     2.255601251    -3.933853446     N.1   1  *****   -0.329471
   44   C44        4.887318574     0.285522520    -1.188295821     C.2   1  *****    0.157781
   45   C45        5.857137799     0.307410357    -2.194820455     C.2   1  *****    0.100476
   46   C46        4.799277655     1.371786406    -0.321097375     C.2   1  *****    0.105461
   47   C47        5.684069786     2.424750616    -0.507933486     C.2   1  *****   -0.467385
   48   C48        6.619268476     2.346362872    -1.540697743     C.2   1  *****    0.524206
   49   N49        6.711541882     1.303517619    -2.376605087     N.2   1  *****   -0.490050
   50   C50        7.546895054     3.423924408    -1.748957040     C.1   1  *****    0.141730
   51   N51        8.283715022     4.308174522    -1.893752636     N.1   1  *****   -0.334930
   52   H52       -4.957682446    -3.209046033    -0.757775403       H   1  *****    0.148660
   53   H53       -5.150916344    -1.113736484     0.551849664       H   1  *****    0.135600
   54   H54       -1.212657707    -5.354037780    -2.942107787       H   1  *****    0.168159
   55   H55       -3.445338375    -4.815686199    -2.077295330       H   1  *****    0.169101
   56   H56        1.254815852    -4.678034403    -3.206159678       H   1  *****    0.143581
   57   H57        3.055140769    -3.067213466    -2.661521591       H   1  *****    0.190930
   58   H58       -4.775463750     3.053756835     2.339194397       H   1  *****    0.192599
   59   H59       -3.104014498     3.326896391     1.768375711       H   1  *****    0.202647
   60   H60       -3.401257283     2.257564724     3.158295856       H   1  *****    0.229238
   61   H61        5.321429017    -2.511440877    -1.612712509       H   1  *****    0.185173
   62   H62        4.008406528    -2.873949583    -0.454493827       H   1  *****    0.202308
   63   H63        5.396678627    -1.941974838     0.078872075       H   1  *****    0.228367
   64   H64       -6.612141756     1.355379011     1.262729350       H   1  *****    0.085982
   65   H65       -3.141971162     1.990351520    -1.193287112       H   1  *****    0.143609
   66   H66       -4.706484642     2.297068671    -3.147139326       H   1  *****    0.225158
   67   H67        5.937115461    -0.525560484    -2.890064145       H   1  *****    0.110646
   68   H68        4.074129051     1.404976980     0.481796843       H   1  *****    0.106289
   69   H69        5.657067658     3.291167678     0.142179182       H   1  *****    0.224107


@<TRIPOS>BOND
    1      1      2    2
    2      2      3    1
    3      3      4    2
    4      4      5    1
    5      5      6    2
    6      8      1    1
    7      1      6    1
    8      6      9    1
    9      7      8    2
   10      7     10    1
   11     11     10    2
   12     10      9    1
   13      9     12    2
   14     11     14    1
   15     12     13    1
   16     13     14    2
   17      4     15    1
   18     15     16    1
   19     15     17    2
   20     13     18    1
   21     18     19    1
   22     18     20    2
   23     16     21    1
   24     19     22    1
   25     23     27    2
   26     23     28    2
   27     24     29    2
   28     24     30    2
   29     25     31    2
   30     25     32    2
   31     23     33    1
   32     24     34    1
   33     25     35    1
   34      5     26    1
   35     12     26    1
   36     17     26    1
   37     20     26    1
   38     27     26    1
   39     28     26    1
   40     30     26    1
   41     29     26    1
   42     32     26    1
   43     31     26    1
   44     37     36    2
   45     36     38    1
   46     37     41    1
   47     38     39    2
   48     39     40    1
   49     40     41    2
   50     40     42    1
   51     42     43    3
   52     16     36    1
   53     45     44    2
   54     44     46    1
   55     45     49    1
   56     46     47    2
   57     47     48    1
   58     48     49    2
   59     48     50    1
   60     50     51    3
   61     19     44    1
   62      2     52    1
   63      3     53    1
   64      7     54    1
   65      8     55    1
   66     11     56    1
   67     14     57    1
   68     21     58    1
   69     21     59    1
   70     21     60    1
   71     22     61    1
   72     22     62    1
   73     22     63    1
   74     37     64    1
   75     38     65    1
   76     39     66    1
   77     45     67    1
   78     46     68    1
   79     47     69    1
#
#	File Created by: Spartan '14 Export
#

@<TRIPOS>MOLECULE
*****
69 79
SMALL
USER_CHARGES


@<TRIPOS>ATOM
    1   C1        -2.706462230    -3.093222395    -0.926539717     C.2   1  *****    0.076222
    2   C2        -3.979031812    -2.664321607    -0.504505557     C.2   1  *****   -0.062564
    3   C3        -4.121039835    -1.450770722     0.134329392     C.2   1  *****   -0.283727
    4   C4        -2.974417314    -0.669380826     0.369594124     C.2   1  *****    0.310773
    5   N5        -1.769496620    -1.075695905     0.013065441       N   1  *****   -0.446987
    6   C6        -1.624360564    -2.241079483    -0.625086619     C.2   1  *****    0.235061
    7   C7        -1.198048619    -4.618713214    -2.078125063     C.2   1  *****   -0.202524
    8   C8        -2.450874595    -4.304025433    -1.645714105     C.2   1  *****   -0.219689
    9   C9        -0.296202231    -2.590443801    -1.050334970     C.2   1  *****    0.303815
   10   C10       -0.085348390    -3.757864312    -1.815654428     C.2   1  *****    0.036201
   11   C11        1.219656324    -3.961119707    -2.300185792     C.2   1  *****   -0.028814
   12   N12        0.683393963    -1.730703113    -0.754893312       N   1  *****   -0.561193
   13   C13        1.900053228    -1.916602154    -1.240248940     C.2   1  *****    0.488524
   14   C14        2.207788859    -3.032909838    -2.037364191     C.2   1  *****   -0.385943
   15   C15       -2.915109584     0.622866294     1.140128863     C.2   1  *****    0.445506
   16   N16       -3.934265080     1.504150764     1.097711818     N.3   1  *****   -0.173743
   17   O17       -1.906957114     0.830833687     1.830536850       O   1  *****   -0.536406
   18   C18        2.776308952    -0.704816402    -1.013292674     C.2   1  *****    0.371852
   19   N19        4.122069241    -0.801144483    -1.098486385     N.3   1  *****   -0.151104
   20   O20        2.187796358     0.372910791    -0.860168814       O   1  *****   -0.569107
   21   C21       -3.793722238     2.720239364     1.906776993     C.3   1  *****   -0.529376
   22   C22        4.863548483    -1.968731343    -0.627627912     C.3   1  *****   -0.648530
   23   N23        3.101666143    -0.223063210     2.020556746       N   1  *****    0.888244
   24   N24       -0.634613434     2.658392965    -0.115838792       N   1  *****    0.949139
   25   N25       -0.195616070    -1.316010505     3.414665434       N   1  *****    0.861510
   26   Nd26       0.385857175     0.184676578     1.020998291      Nd   1  *****    1.901218
   27   O27        2.383162376    -1.193234287     1.590807719       O   1  *****   -0.584342
   28   O28        2.570927592     0.924400325     1.981040993       O   1  *****   -0.519195
   29   O29       -0.830511792     1.543748414    -0.716072000       O   1  *****   -0.640224
   30   O30        0.203371174     2.635363867     0.840115541       O   1  *****   -0.564991
   31   O31       -0.399041890    -1.801482389     2.246093629       O   1  *****   -0.583690
   32   O32        0.296986105    -0.138126137     3.440896719       O   1  *****   -0.567744
   33   O33        4.244788582    -0.408388617     2.411432099       O   1  *****   -0.450301
   34   O34       -1.243296247     3.665964551    -0.429046989       O   1  *****   -0.447874
   35   O35       -0.460723078    -1.934420510     4.422035043       O   1  *****   -0.415792
   36   C36       -4.821511988     1.568938530    -0.023751034     C.2   1  *****    0.297841
   37   C37       -6.198914213     1.474224047     0.170914941     C.2   1  *****   -0.173107
   38   C38       -4.297690284     1.792670007    -1.298246220     C.2   1  *****   -0.169136
   39   C39       -5.155877948     1.885638831    -2.387223523     C.2   1  *****   -0.307565
   40   C40       -6.521411072     1.773839110    -2.176264184     C.2   1  *****    0.375680
   41   C41       -7.061124298     1.575195712    -0.912959719     C.2   1  *****   -0.306221
   42   F42       -7.351019911     1.866153032    -3.223965951       F   1  *****   -0.184780
   43   C43        4.873532077     0.414729127    -1.274444743     C.2   1  *****    0.351420
   44   C44        5.397141884     1.109435735    -0.186476278     C.2   1  *****   -0.212040
   45   C45        5.081788405     0.873541871    -2.572501771     C.2   1  *****   -0.211784
   46   C46        5.815113358     2.031970062    -2.794871472     C.2   1  *****   -0.271128
   47   C47        6.331659648     2.708094219    -1.700704251     C.2   1  *****    0.354711
   48   C48        6.134067880     2.267041812    -0.401593000     C.2   1  *****   -0.265539
   49   F49        7.043585821     3.824880644    -1.907907401       F   1  *****   -0.187228
   50   H50       -4.846623476    -3.289373766    -0.691771008       H   1  *****    0.142232
   51   H51       -5.095579942    -1.104302049     0.452081496       H   1  *****    0.142647
   52   H52       -1.027791446    -5.529434824    -2.643635541       H   1  *****    0.164373
   53   H53       -3.284048855    -4.965597840    -1.861240841       H   1  *****    0.168738
   54   H54        1.436508218    -4.833080269    -2.909614190       H   1  *****    0.139039
   55   H55        3.198601119    -3.150700717    -2.457905549       H   1  *****    0.196658
   56   H56       -3.117989756     3.426765051     1.413805671       H   1  *****    0.199815
   57   H57       -3.383002258     2.458644804     2.880672487       H   1  *****    0.224732
   58   H58       -4.778882942     3.172202851     2.019751596       H   1  *****    0.192198
   59   H59        5.588766673    -2.294902022    -1.378069706       H   1  *****    0.202280
   60   H60        4.179268904    -2.779631916    -0.386370106       H   1  *****    0.221664
   61   H61        5.385891216    -1.704603860     0.296077267       H   1  *****    0.237822
   62   H62       -6.590649419     1.315409588     1.170548808       H   1  *****    0.147530
   63   H63       -3.224599961     1.911004529    -1.422763256       H   1  *****    0.162541
   64   H64       -4.780039467     2.059641818    -3.388684602       H   1  *****    0.196150
   65   H65       -8.135760993     1.501539854    -0.794588928       H   1  *****    0.189010
   66   H66        5.210898694     0.764746594     0.825151480       H   1  *****    0.178311
   67   H67        4.662439354     0.323321491    -3.408191907       H   1  *****    0.144587
   68   H68        5.988740269     2.413409264    -3.794078908       H   1  *****    0.179765
   69   H69        6.541648214     2.835092574     0.426239357       H   1  *****    0.184581


@<TRIPOS>BOND
    1      1      2    2
    2      2      3    1
    3      3      4    2
    4      4      5    1
    5      5      6    2
    6      8      1    1
    7      1      6    1
    8      6      9    1
    9      7      8    2
   10      7     10    1
   11     11     10    2
   12     10      9    1
   13      9     12    2
   14     11     14    1
   15     12     13    1
   16     13     14    2
   17      4     15    1
   18     15     16    1
   19     15     17    2
   20     13     18    1
   21     18     19    1
   22     18     20    2
   23     16     21    1
   24     19     22    1
   25     23     27    2
   26     23     28    2
   27     24     29    2
   28     24     30    2
   29     25     31    2
   30     25     32    2
   31     23     33    1
   32     24     34    1
   33     25     35    1
   34      5     26    1
   35     12     26    1
   36     17     26    1
   37     20     26    1
   38     27     26    1
   39     28     26    1
   40     30     26    1
   41     29     26    1
   42     32     26    1
   43     31     26    1
   44     37     36    2
   45     36     38    1
   46     37     41    1
   47     38     39    2
   48     39     40    1
   49     40     41    2
   50     40     42    1
   51     16     36    1
   52     44     43    2
   53     43     45    1
   54     44     48    1
   55     45     46    2
   56     46     47    1
   57     47     48    2
   58     47     49    1
   59     19     43    1
   60      2     50    1
   61      3     51    1
   62      7     52    1
   63      8     53    1
   64     11     54    1
   65     14     55    1
   66     21     56    1
   67     21     57    1
   68     21     58    1
   69     22     59    1
   70     22     60    1
   71     22     61    1
   72     37     62    1
   73     38     63    1
   74     39     64    1
   75     41     65    1
   76     44     66    1
   77     45     67    1
   78     46     68    1
   79     48     69    1
#
#	File Created by: Spartan '14 Export
#

@<TRIPOS>MOLECULE
*****
75 85
SMALL
USER_CHARGES


@<TRIPOS>ATOM
    1   C1        -2.723802354    -3.086851784    -0.923987588     C.2   1  *****    0.078787
    2   C2        -3.992115634    -2.653027072    -0.494017900     C.2   1  *****   -0.064049
    3   C3        -4.125089529    -1.441208881     0.149631205     C.2   1  *****   -0.286765
    4   C4        -2.973255058    -0.666295805     0.382064346     C.2   1  *****    0.324038
    5   N5        -1.772375299    -1.076710805     0.017105935       N   1  *****   -0.440405
    6   C6        -1.636229451    -2.240703289    -0.625631443     C.2   1  *****    0.225075
    7   C7        -1.228380281    -4.615817117    -2.088110473     C.2   1  *****   -0.204002
    8   C8        -2.477462746    -4.296529546    -1.648179945     C.2   1  *****   -0.220902
    9   C9        -0.311972992    -2.595423918    -1.058256812     C.2   1  *****    0.308746
   10   C10       -0.110312640    -3.761212237    -1.828464511     C.2   1  *****    0.036004
   11   C11        1.191528465    -3.968992146    -2.319782272     C.2   1  *****   -0.030788
   12   N12        0.673424779    -1.741872502    -0.763978240       N   1  *****   -0.563142
   13   C13        1.886957060    -1.931920500    -1.255129537     C.2   1  *****    0.488065
   14   C14        2.185329353    -3.046729744    -2.058146704     C.2   1  *****   -0.386997
   15   C15       -2.904319943     0.621647771     1.158846748     C.2   1  *****    0.416460
   16   N16       -3.924025689     1.501286475     1.135366832     N.3   1  *****   -0.136632
   17   O17       -1.887860589     0.824862938     1.839467160       O   1  *****   -0.532297
   18   C18        2.771139432    -0.725946047    -1.026230898     C.2   1  *****    0.377167
   19   N19        4.115016682    -0.831216490    -1.114765329     N.3   1  *****   -0.160506
   20   O20        2.187833317     0.354221946    -0.867381174       O   1  *****   -0.571352
   21   C21       -3.774013589     2.710590779     1.952010359     C.3   1  *****   -0.546655
   22   C22        4.847628269    -2.004977663    -0.646557243     C.3   1  *****   -0.641078
   23   N23        3.107771687    -0.254184067     2.020223177       N   1  *****    0.889351
   24   N24       -0.614297113     2.654328510    -0.103998415       N   1  *****    0.953936
   25   N25       -0.186814039    -1.335737530     3.410791674       N   1  *****    0.864434
   26   Nd26       0.396168514     0.171544218     1.018414200      Nd   1  *****    1.904038
   27   O27        2.386961464    -1.217955261     1.578408171       O   1  *****   -0.585882
   28   O28        2.582583756     0.895999776     1.984938738       O   1  *****   -0.519187
   29   O29       -0.818357205     1.542970846    -0.706819547       O   1  *****   -0.641460
   30   O30        0.226886857     2.623563404     0.849516614       O   1  *****   -0.569973
   31   O31       -0.396527640    -1.815288946     2.241084580       O   1  *****   -0.586573
   32   O32        0.312835936    -0.161507940     3.441189798       O   1  *****   -0.569393
   33   O33        4.245796000    -0.448820569     2.420120408       O   1  *****   -0.453190
   34   O34       -1.217117679     3.667019251    -0.411981268       O   1  *****   -0.452570
   35   O35       -0.452824415    -1.957446735     4.416536215       O   1  *****   -0.419733
   36   C36       -4.832337047     1.572714656     0.030157732     C.2   1  *****    0.286320
   37   C37       -6.204991006     1.484328994     0.246152838     C.2   1  *****   -0.196070
   38   C38       -4.334728679     1.794778872    -1.253745838     C.2   1  *****   -0.174342
   39   C39       -5.221523498     1.897551022    -2.317859528     C.2   1  *****   -0.331286
   40   C40       -6.602675537     1.804439553    -2.126665531     C.2   1  *****    0.431675
   41   C41       -7.077758309     1.596984932    -0.828908223     C.2   1  *****   -0.310225
   42   C42       -7.551279438     1.957678128    -3.282344325     C.3   1  *****   -0.770754
   43   C43        4.876652624     0.380152991    -1.285810236     C.2   1  *****    0.387081
   44   C44        5.431931154     1.049592515    -0.199136553     C.2   1  *****   -0.248617
   45   C45        5.070453163     0.859549111    -2.576402943     C.2   1  *****   -0.245338
   46   C46        5.817644173     2.013283706    -2.780496901     C.2   1  *****   -0.267928
   47   C47        6.382904623     2.702697469    -1.707019792     C.2   1  *****    0.402399
   48   C48        6.178080778     2.199145793    -0.419620348     C.2   1  *****   -0.272851
   49   C49        7.168590317     3.966300948    -1.920114260     C.3   1  *****   -0.782207
   50   H50       -4.863690829    -3.273254729    -0.679095351       H   1  *****    0.141002
   51   H51       -5.096310286    -1.089569818     0.471795714       H   1  *****    0.145149
   52   H52       -1.065289083    -5.525779645    -2.657056109       H   1  *****    0.163435
   53   H53       -3.314827430    -4.953718729    -1.861178322       H   1  *****    0.166513
   54   H54        1.401235615    -4.839909795    -2.933274550       H   1  *****    0.137777
   55   H55        3.173772437    -3.167193657    -2.483476980       H   1  *****    0.196439
   56   H56       -3.102387897     3.419921319     1.457299236       H   1  *****    0.204832
   57   H57       -3.353299271     2.441752840     2.919725379       H   1  *****    0.224873
   58   H58       -4.757463106     3.162710519     2.077973974       H   1  *****    0.195343
   59   H59        5.571710263    -2.333109991    -1.397268722       H   1  *****    0.199472
   60   H60        4.157995741    -2.812407682    -0.408689043       H   1  *****    0.219387
   61   H61        5.370815317    -1.747146695     0.278460067       H   1  *****    0.235798
   62   H62       -6.582179123     1.319973420     1.250968354       H   1  *****    0.145350
   63   H63       -3.263488605     1.904736715    -1.400787473       H   1  *****    0.157807
   64   H64       -4.830718349     2.068841927    -3.316789927       H   1  *****    0.187923
   65   H65       -8.147683769     1.520890658    -0.658095855       H   1  *****    0.172744
   66   H66       -8.539182737     1.552541510    -3.048093793       H   1  *****    0.202282
   67   H67       -7.179429232     1.450351606    -4.177466325       H   1  *****    0.202006
   68   H68       -7.684242085     3.013905708    -3.544250172       H   1  *****    0.220667
   69   H69        5.261647127     0.691702795     0.810789762       H   1  *****    0.181544
   70   H70        4.633645628     0.328718452    -3.416303848       H   1  *****    0.142847
   71   H71        5.963079441     2.382884371    -3.791484663       H   1  *****    0.162965
   72   H72        6.600182452     2.723312746     0.432966191       H   1  *****    0.173998
   73   H73        8.065560400     3.989462751    -1.293948786       H   1  *****    0.206401
   74   H74        7.479645968     4.075324312    -2.962434153       H   1  *****    0.202306
   75   H75        6.572617827     4.849007601    -1.660435949       H   1  *****    0.220711


@<TRIPOS>BOND
    1      1      2    2
    2      2      3    1
    3      3      4    2
    4      4      5    1
    5      5      6    2
    6      8      1    1
    7      1      6    1
    8      6      9    1
    9      7      8    2
   10      7     10    1
   11     11     10    2
   12     10      9    1
   13      9     12    2
   14     11     14    1
   15     12     13    1
   16     13     14    2
   17      4     15    1
   18     15     16    1
   19     15     17    2
   20     13     18    1
   21     18     19    1
   22     18     20    2
   23     16     21    1
   24     19     22    1
   25     23     27    2
   26     23     28    2
   27     24     29    2
   28     24     30    2
   29     25     31    2
   30     25     32    2
   31     23     33    1
   32     24     34    1
   33     25     35    1
   34      5     26    1
   35     12     26    1
   36     17     26    1
   37     20     26    1
   38     27     26    1
   39     28     26    1
   40     30     26    1
   41     29     26    1
   42     32     26    1
   43     31     26    1
   44     37     36    2
   45     36     38    1
   46     37     41    1
   47     38     39    2
   48     39     40    1
   49     40     41    2
   50     40     42    1
   51     16     36    1
   52     44     43    2
   53     43     45    1
   54     44     48    1
   55     45     46    2
   56     46     47    1
   57     47     48    2
   58     47     49    1
   59     19     43    1
   60      2     50    1
   61      3     51    1
   62      7     52    1
   63      8     53    1
   64     11     54    1
   65     14     55    1
   66     21     56    1
   67     21     57    1
   68     21     58    1
   69     22     59    1
   70     22     60    1
   71     22     61    1
   72     37     62    1
   73     38     63    1
   74     39     64    1
   75     41     65    1
   76     42     66    1
   77     42     67    1
   78     42     68    1
   79     44     69    1
   80     45     70    1
   81     46     71    1
   82     48     72    1
   83     49     73    1
   84     49     74    1
   85     49     75    1
#
#	File Created by: Spartan '14 Export
#

@<TRIPOS>MOLECULE
*****
77 87
SMALL
USER_CHARGES


@<TRIPOS>ATOM
    1   C1         2.910333265    -2.936861065    -0.591056279     C.2   1  *****    0.076234
    2   C2         4.097645516    -2.227310567    -0.844306538     C.2   1  *****   -0.081713
    3   C3         4.102525854    -0.850562129    -0.797194307     C.2   1  *****   -0.257317
    4   C4         2.897613682    -0.174758556    -0.526737288     C.2   1  *****    0.304662
    5   N5         1.755313297    -0.825957835    -0.367329918       N   1  *****   -0.416620
    6   C6         1.750044232    -2.165587889    -0.358537023     C.2   1  *****    0.226216
    7   C7         1.636090783    -4.988703367    -0.317454070     C.2   1  *****   -0.194209
    8   C8         2.818243446    -4.363968370    -0.569701675     C.2   1  *****   -0.221672
    9   C9         0.499939004    -2.827305975    -0.082160185     C.2   1  *****    0.254584
   10   C10        0.445002945    -4.239481923    -0.063217952     C.2   1  *****    0.066378
   11   C11       -0.811325112    -4.818402000     0.189275249     C.2   1  *****   -0.091887
   12   N12       -0.568761924    -2.057707907     0.141628525       N   1  *****   -0.527008
   13   C13       -1.735406512    -2.616287417     0.411465461     C.2   1  *****    0.547930
   14   C14       -1.904642127    -4.013367263     0.429279472     C.2   1  *****   -0.342372
   15   C15        2.704927629     1.319358104    -0.446902459     C.2   1  *****    0.336798
   16   N16        3.750539383     2.160097485    -0.258184447     N.3   1  *****   -0.125858
   17   O17        1.564523162     1.772540659    -0.587695944       O   1  *****   -0.396306
   18   C18       -2.827112350    -1.579409011     0.513639839     C.2   1  *****    0.149568
   19   N19       -3.894010415    -1.751534412     1.320875747     N.3   1  *****    0.021092
   20   O20       -2.691269510    -0.571838669    -0.191161569       O   1  *****   -0.400332
   21   C21        3.451425848     3.592830768    -0.343741610     C.3   1  *****   -0.617485
   22   C22       -3.971415824    -2.754171109     2.378738184     C.3   1  *****   -0.590256
   23   N23       -1.844552379     2.621460939    -2.350645905       N   1  *****    0.930091
   24   N24       -0.994478404     1.332321854     1.973109484       N   1  *****    0.934355
   25   N25        0.255136623    -0.754861975    -3.298484290       N   1  *****    0.879407
   26   Nd26      -0.564234472     0.558596904    -0.825428624      Nd   1  *****    1.807912
   27   O27       -2.310700055     1.430140400    -2.268355082       O   1  *****   -0.601773
   28   O28       -0.763374465     2.828706548    -1.699988447       O   1  *****   -0.598263
   29   O29       -0.059349184     0.536712070     1.614506485       O   1  *****   -0.650103
   30   O30       -1.678364507     1.844163811     1.026857870       O   1  *****   -0.580704
   31   O31       -0.595603230    -1.275791112    -2.495703614       O   1  *****   -0.579093
   32   O32        0.728995643     0.374206003    -2.936487016       O   1  *****   -0.584583
   33   O33       -2.390913788     3.487048383    -2.997483487       O   1  *****   -0.438029
   34   O34       -1.226338502     1.567479141     3.144074028       O   1  *****   -0.456679
   35   O35        0.600958451    -1.309827919    -4.320459078       O   1  *****   -0.432638
   36   C36        4.956876642     1.777752240     0.400021219     C.2   1  *****    0.309031
   37   C37        6.194600361     2.031522294    -0.199077506     C.2   1  *****   -0.159319
   38   C38        4.913342898     1.182098675     1.656646751     C.2   1  *****   -0.231100
   39   C39        6.086050499     0.802435969     2.302520870     C.2   1  *****   -0.324125
   40   C40        7.319644765     1.044628525     1.695085760     C.2   1  *****    0.465977
   41   C41        7.365095606     1.669184497     0.441576449     C.2   1  *****   -0.362268
   42   O42        8.517344308     0.717075867     2.230891937     O.3   1  *****   -0.281419
   43   C43        8.537103132     0.104864693     3.504968974     C.3   1  *****   -0.310389
   44   C44       -4.973602679    -0.800103894     1.281270326     C.2   1  *****    0.230421
   45   C45       -6.264737395    -1.269553753     1.038865298     C.2   1  *****   -0.189651
   46   C46       -4.758343222     0.553805727     1.511533936     C.2   1  *****   -0.224737
   47   C47       -5.830313011     1.438837856     1.492043889     C.2   1  *****   -0.256797
   48   C48       -7.123250649     0.971321947     1.250245151     C.2   1  *****    0.441234
   49   C49       -7.334892690    -0.393010137     1.027527351     C.2   1  *****   -0.331382
   50   O50       -8.228079146     1.753653086     1.209462086     O.3   1  *****   -0.287850
   51   C51       -8.063325830     3.147868626     1.373277458     C.3   1  *****   -0.305154
   52   H52        5.010666433    -2.770155591    -1.068687204       H   1  *****    0.146352
   53   H53        5.015953082    -0.300560513    -0.974019016       H   1  *****    0.136916
   54   H54        1.579185905    -6.072669060    -0.308829811       H   1  *****    0.161119
   55   H55        3.715301866    -4.943842955    -0.762956031       H   1  *****    0.165379
   56   H56       -0.916525440    -5.898973287     0.180382287       H   1  *****    0.149411
   57   H57       -2.880746472    -4.451460817     0.595296892       H   1  *****    0.182098
   58   H58        4.387090735     4.129879042    -0.496702176       H   1  *****    0.205373
   59   H59        2.976511940     3.944951506     0.577539367       H   1  *****    0.217602
   60   H60        2.767924083     3.770408348    -1.172722551       H   1  *****    0.251403
   61   H61       -2.994170424    -3.195868946     2.566455148       H   1  *****    0.181141
   62   H62       -4.685227316    -3.547739837     2.134833247       H   1  *****    0.182484
   63   H63       -4.305255657    -2.260588213     3.293685872       H   1  *****    0.214106
   64   H64        6.229717677     2.500545166    -1.177221670       H   1  *****    0.152706
   65   H65        3.953722550     1.015478864     2.135836226       H   1  *****    0.178251
   66   H66        6.026063565     0.335243897     3.277210690       H   1  *****    0.174777
   67   H67        8.333441271     1.851813614    -0.010187698       H   1  *****    0.189764
   68   H68        9.587498343    -0.066080840     3.739083876       H   1  *****    0.179889
   69   H69        8.096180089     0.754783038     4.269966070       H   1  *****    0.147156
   70   H70        8.006045269    -0.854448309     3.496334681       H   1  *****    0.134678
   71   H71       -6.430931868    -2.323766432     0.840460682       H   1  *****    0.149025
   72   H72       -3.760476077     0.939849326     1.682087345       H   1  *****    0.175342
   73   H73       -5.637277302     2.490659774     1.658888958       H   1  *****    0.163211
   74   H74       -8.343679782    -0.738369661     0.832385253       H   1  *****    0.175610
   75   H75       -9.059488574     3.580459129     1.280668820       H   1  *****    0.171326
   76   H76       -7.653399443     3.391425254     2.360891426       H   1  *****    0.131863
   77   H77       -7.410755811     3.568353764     0.599375094       H   1  *****    0.150222


@<TRIPOS>BOND
    1      1      2    2
    2      2      3    1
    3      3      4    2
    4      4      5    1
    5      5      6    2
    6      8      1    1
    7      1      6    1
    8      6      9    1
    9      7      8    2
   10      7     10    1
   11     11     10    2
   12     10      9    1
   13      9     12    2
   14     11     14    1
   15     12     13    1
   16     13     14    2
   17      4     15    1
   18     15     16    1
   19     15     17    2
   20     13     18    1
   21     18     19    1
   22     18     20    2
   23     16     21    1
   24     19     22    1
   25     23     27    2
   26     23     28    2
   27     24     29    2
   28     24     30    2
   29     25     31    2
   30     25     32    2
   31     23     33    1
   32     24     34    1
   33     25     35    1
   34      5     26    1
   35     12     26    1
   36     17     26    1
   37     20     26    1
   38     27     26    1
   39     28     26    1
   40     30     26    1
   41     29     26    1
   42     32     26    1
   43     31     26    1
   44     37     36    2
   45     36     38    1
   46     37     41    1
   47     38     39    2
   48     39     40    1
   49     40     41    2
   50     40     42    1
   51     42     43    1
   52     16     36    1
   53     45     44    2
   54     44     46    1
   55     45     49    1
   56     46     47    2
   57     47     48    1
   58     48     49    2
   59     48     50    1
   60     50     51    1
   61     19     44    1
   62      2     52    1
   63      3     53    1
   64      7     54    1
   65      8     55    1
   66     11     56    1
   67     14     57    1
   68     21     58    1
   69     21     59    1
   70     21     60    1
   71     22     61    1
   72     22     62    1
   73     22     63    1
   74     37     64    1
   75     38     65    1
   76     39     66    1
   77     41     67    1
   78     43     68    1
   79     43     69    1
   80     43     70    1
   81     45     71    1
   82     46     72    1
   83     47     73    1
   84     49     74    1
   85     51     75    1
   86     51     76    1
   87     51     77    1
#
#	File Created by: Spartan '14 Export
#

@<TRIPOS>MOLECULE
*****
79 89
SMALL
USER_CHARGES


@<TRIPOS>ATOM
    1   C1         2.914556283    -2.670495140     1.767421791     C.2   1  *****    0.068325
    2   C2         4.141527145    -2.413351857     1.126485401     C.2   1  *****   -0.072863
    3   C3         4.191858252    -1.541575477     0.059564580     C.2   1  *****   -0.259521
    4   C4         2.998633570    -0.939871238    -0.381124551     C.2   1  *****    0.273987
    5   N5         1.833364302    -1.207187903     0.179801735       N   1  *****   -0.402130
    6   C6         1.777400198    -2.031635195     1.229936580     C.2   1  *****    0.231669
    7   C7         1.549081938    -3.642144856     3.532047444     C.2   1  *****   -0.214655
    8   C8         2.758430193    -3.502239061     2.921285221     C.2   1  *****   -0.208057
    9   C9         0.492733066    -2.211830687     1.849996356     C.2   1  *****    0.287146
   10   C10        0.384515793    -2.978824791     3.030593689     C.2   1  *****    0.050281
   11   C11       -0.875872205    -2.994986253     3.655520919     C.2   1  *****   -0.033917
   12   N12       -0.545327141    -1.563480491     1.308420779       N   1  *****   -0.571382
   13   C13       -1.720640704    -1.572463817     1.915953466     C.2   1  *****    0.525702
   14   C14       -1.922863718    -2.274770047     3.117526367     C.2   1  *****   -0.395335
   15   C15        2.845283571    -0.041090514    -1.578359141     C.2   1  *****    0.452704
   16   N16        3.836430773     0.799456120    -1.940396163     N.3   1  *****   -0.203746
   17   O17        1.796410652    -0.128321696    -2.231938773       O   1  *****   -0.530536
   18   C18       -2.678870730    -0.584842201     1.292891370     C.2   1  *****    0.343913
   19   N19       -4.022666936    -0.752145060     1.432114982     N.3   1  *****   -0.229812
   20   O20       -2.164205634     0.397159653     0.747055455       O   1  *****   -0.539403
   21   C21        3.624188824     1.597617062    -3.153688046     C.3   1  *****   -0.565978
   22   C22       -4.602502803    -2.095611237     1.359385592     C.3   1  *****   -0.537381
   23   N23       -3.187368233    -1.083449341    -1.700797028       N   1  *****    0.891422
   24   N24        0.591978564     2.279007373    -0.999877197       N   1  *****    0.945951
   25   N25        0.031037893    -2.776454112    -2.721948036       N   1  *****    0.860355
   26   Nd26      -0.417932559    -0.453873887    -1.079442757      Nd   1  *****    1.893266
   27   O27       -2.451956898    -1.867928740    -0.992396017       O   1  *****   -0.593010
   28   O28       -2.622405280    -0.033298801    -2.124896125       O   1  *****   -0.510052
   29   O29        0.856591418     1.461500439    -0.047755438       O   1  *****   -0.659348
   30   O30       -0.295273112     1.900787416    -1.825528784       O   1  *****   -0.557777
   31   O31        0.310208977    -2.766349915    -1.469602955       O   1  *****   -0.587908
   32   O32       -0.460107982    -1.691566280    -3.181425065       O   1  *****   -0.568419
   33   O33       -4.357896477    -1.339872676    -1.916940379       O   1  *****   -0.439236
   34   O34        1.185962057     3.336826171    -1.112097372       O   1  *****   -0.448386
   35   O35        0.227926497    -3.749292512    -3.415388999       O   1  *****   -0.411878
   36   C36        4.773007860     1.310317001    -0.986893145     C.2   1  *****    0.473179
   37   C37        6.143612103     1.198734747    -1.228962798     C.2   1  *****   -0.273310
   38   C38        4.300488109     1.970595861     0.146548140     C.2   1  *****   -0.308898
   39   C39        5.212921822     2.496500345     1.053391002     C.2   1  *****   -0.107489
   40   C40        6.587554275     2.379001474     0.834054278     C.2   1  *****   -0.102937
   41   C41        7.042385571     1.726653011    -0.317931334     C.2   1  *****   -0.095238
   42   C42        7.609809535     2.928000490     1.777652473     C.2   1  *****    0.644990
   43   O43        8.796491661     2.762059021     1.559809314     O.2   1  *****   -0.463472
   44   C44        7.141874468     3.689013065     2.995775520     C.3   1  *****   -0.726574
   45   C45       -4.889590148     0.352464476     1.180400055     C.2   1  *****    0.481209
   46   C46       -6.061204835     0.189706616     0.438373538     C.2   1  *****   -0.296350
   47   C47       -4.595290287     1.596940420     1.744825603     C.2   1  *****   -0.403693
   48   C48       -5.458851614     2.662820539     1.561407850     C.2   1  *****   -0.011070
   49   C49       -6.639306285     2.509604275     0.826706316     C.2   1  *****   -0.128499
   50   C50       -6.923290629     1.261155938     0.270542936     C.2   1  *****   -0.062057
   51   C51       -7.611951067     3.619215906     0.609874022     C.2   1  *****    0.626458
   52   O52       -8.654363386     3.420287062     0.010775531     O.2   1  *****   -0.462778
   53   C53       -7.279331166     4.992755707     1.147146343     C.3   1  *****   -0.704542
   54   H54        5.046441284    -2.895348641     1.483127202       H   1  *****    0.146872
   55   H55        5.131038483    -1.322687568    -0.431683392       H   1  *****    0.135097
   56   H56        1.453617560    -4.255494984     4.422339262       H   1  *****    0.168038
   57   H57        3.633178971    -4.006754458     3.319241633       H   1  *****    0.167672
   58   H58       -1.010633006    -3.550167059     4.578786726       H   1  *****    0.140812
   59   H59       -2.879493203    -2.231007781     3.623893433       H   1  *****    0.198219
   60   H60        4.590918382     1.966545637    -3.495782265       H   1  *****    0.198834
   61   H61        2.961488997     2.442181866    -2.939039909       H   1  *****    0.209839
   62   H62        3.165391142     0.971681925    -3.917297033       H   1  *****    0.239883
   63   H63       -5.493763264    -2.144511229     1.986997122       H   1  *****    0.182258
   64   H64       -3.877676882    -2.833939612     1.690492908       H   1  *****    0.202346
   65   H65       -4.848925439    -2.329306987     0.320222169       H   1  *****    0.202835
   66   H66        6.490223140     0.690528064    -2.123446370       H   1  *****    0.153798
   67   H67        3.230103101     2.088123345     0.292040565       H   1  *****    0.179174
   68   H68        4.839579756     3.014130343     1.930055264       H   1  *****    0.147172
   69   H69        8.112579778     1.647219777    -0.471621479       H   1  *****    0.138613
   70   H70        8.014848942     4.023218647     3.555714954       H   1  *****    0.211220
   71   H71        6.539000876     4.557262397     2.709451309       H   1  *****    0.204136
   72   H72        6.518235098     3.059599636     3.639688117       H   1  *****    0.184513
   73   H73       -6.284789356    -0.755125326    -0.038497498       H   1  *****    0.195422
   74   H74       -3.686533528     1.728567802     2.318620810       H   1  *****    0.209597
   75   H75       -5.207978343     3.619390772     2.006063143       H   1  *****    0.115464
   76   H76       -7.833446988     1.154059335    -0.308419752       H   1  *****    0.129039
   77   H77       -8.092868235     5.672808228     0.895457277       H   1  *****    0.203259
   78   H78       -7.150204088     4.970758313     2.234582937       H   1  *****    0.176903
   79   H79       -6.345157841     5.368645858     0.716322047       H   1  *****    0.196060


@<TRIPOS>BOND
    1      1      2    2
    2      2      3    1
    3      3      4    2
    4      4      5    1
    5      5      6    2
    6      8      1    1
    7      1      6    1
    8      6      9    1
    9      7      8    2
   10      7     10    1
   11     11     10    2
   12     10      9    1
   13      9     12    2
   14     11     14    1
   15     12     13    1
   16     13     14    2
   17      4     15    1
   18     15     16    1
   19     15     17    2
   20     13     18    1
   21     18     19    1
   22     18     20    2
   23     16     21    1
   24     19     22    1
   25     23     27    2
   26     23     28    2
   27     24     29    2
   28     24     30    2
   29     25     31    2
   30     25     32    2
   31     23     33    1
   32     24     34    1
   33     25     35    1
   34      5     26    1
   35     12     26    1
   36     17     26    1
   37     20     26    1
   38     27     26    1
   39     28     26    1
   40     30     26    1
   41     29     26    1
   42     32     26    1
   43     31     26    1
   44     37     36    2
   45     36     38    1
   46     37     41    1
   47     38     39    2
   48     39     40    1
   49     40     41    2
   50     40     42    1
   51     42     43    2
   52     42     44    1
   53     16     36    1
   54     46     45    2
   55     45     47    1
   56     46     50    1
   57     47     48    2
   58     48     49    1
   59     49     50    2
   60     49     51    1
   61     51     52    2
   62     51     53    1
   63     19     45    1
   64      2     54    1
   65      3     55    1
   66      7     56    1
   67      8     57    1
   68     11     58    1
   69     14     59    1
   70     21     60    1
   71     21     61    1
   72     21     62    1
   73     22     63    1
   74     22     64    1
   75     22     65    1
   76     37     66    1
   77     38     67    1
   78     39     68    1
   79     41     69    1
   80     44     70    1
   81     44     71    1
   82     44     72    1
   83     46     73    1
   84     47     74    1
   85     48     75    1
   86     50     76    1
   87     53     77    1
   88     53     78    1
   89     53     79    1
#
#	File Created by: Spartan '14 Export
#

@<TRIPOS>MOLECULE
*****
85 95
SMALL
USER_CHARGES


@<TRIPOS>ATOM
    1   C1        -1.520031166    -2.816815334     1.759877556     C.2   1  *****    0.097101
    2   C2        -2.831976016    -2.551308684     2.197734110     C.2   1  *****   -0.085075
    3   C3        -3.418290693    -1.334319667     1.925485671     C.2   1  *****   -0.276965
    4   C4        -2.671812320    -0.363502394     1.231456911     C.2   1  *****    0.326628
    5   N5        -1.424299416    -0.580881044     0.857212867       N   1  *****   -0.440418
    6   C6        -0.856356598    -1.768985926     1.087201953     C.2   1  *****    0.205843
    7   C7         0.397344513    -4.271726620     1.412804926     C.2   1  *****   -0.210078
    8   C8        -0.845493596    -4.066404225     1.930442213     C.2   1  *****   -0.227117
    9   C9         0.468196738    -1.975271420     0.565734811     C.2   1  *****    0.324144
   10   C10        1.079019344    -3.241352247     0.692636831     C.2   1  *****    0.024733
   11   C11        2.321364897    -3.403478485     0.053693575     C.2   1  *****   -0.021516
   12   N12        1.036881810    -0.959271715    -0.097188459       N   1  *****   -0.535041
   13   C13        2.192080525    -1.135686186    -0.722961990     C.2   1  *****    0.375044
   14   C14        2.872771242    -2.366743602    -0.668117452     C.2   1  *****   -0.336935
   15   C15       -3.099562579     1.047260379     0.926897424     C.2   1  *****    0.391078
   16   N16       -4.385148372     1.341163075     0.663436470     N.3   1  *****   -0.136523
   17   O17       -2.221891805     1.925696423     0.946257145       O   1  *****   -0.525554
   18   C18        2.529883308     0.061687006    -1.583820199     C.2   1  *****    0.428559
   19   N19        3.771501485     0.256654865    -2.064629822     N.3   1  *****   -0.153066
   20   O20        1.587759391     0.817262328    -1.876732846       O   1  *****   -0.583079
   21   C21       -4.704208487     2.747080674     0.396818872     C.3   1  *****   -0.591048
   22   C22        3.977032969     1.404959017    -2.952506109     C.3   1  *****   -0.597398
   23   N23        2.656477060     2.837934770     0.001054018       N   1  *****    0.897678
   24   N24       -1.922365269     1.966857586    -2.013870294       N   1  *****    0.942765
   25   N25        0.375078192     1.986361374     2.900328562       N   1  *****    0.875525
   26   Nd26       0.075198989     1.498116704     0.063482799      Nd   1  *****    1.894719
   27   O27        2.491180959     1.727322608     0.625158557       O   1  *****   -0.588418
   28   O28        1.611858621     3.357109052    -0.491226447       O   1  *****   -0.518849
   29   O29       -1.661631373     0.774257969    -1.628942386       O   1  *****   -0.638907
   30   O30       -1.118304692     2.868341965    -1.619576843       O   1  *****   -0.563035
   31   O31        0.362918855     0.800690955     2.411340508       O   1  *****   -0.599420
   32   O32        0.244758236     2.931208890     2.055952042       O   1  *****   -0.573998
   33   O33        3.763114969     3.333336352    -0.126702108       O   1  *****   -0.455820
   34   O34       -2.904068383     2.216870804    -2.693232896       O   1  *****   -0.458991
   35   O35        0.498497428     2.186150902     4.090692931       O   1  *****   -0.429176
   36   C36       -5.301879672     0.358377399     0.172402560     C.2   1  *****    0.403338
   37   C37       -5.030393305    -0.319282726    -1.015890791     C.2   1  *****   -0.257948
   38   C38       -6.505054753     0.122856930     0.832701982     C.2   1  *****   -0.267277
   39   C39       -7.415186872    -0.794873885     0.336010191     C.2   1  *****   -0.259280
   40   C40       -7.146354139    -1.516724779    -0.847535594     C.2   1  *****    0.207795
   41   C41       -5.932172573    -1.245624974    -1.513416056     C.2   1  *****   -0.266549
   42   N42       -8.039188101    -2.445363146    -1.333650930     N.3   1  *****    0.081577
   43   C43       -9.344852094    -2.568906045    -0.726292331     C.3   1  *****   -0.492186
   44   C44       -7.806613766    -3.050660651    -2.626023645     C.3   1  *****   -0.509709
   45   C45        4.936959858    -0.301967531    -1.451153473     C.2   1  *****    0.371266
   46   C46        5.232923705    -0.022500391    -0.117527411     C.2   1  *****   -0.190234
   47   C47        5.813010843    -1.088609102    -2.195501645     C.2   1  *****   -0.262689
   48   C48        6.949463599    -1.625227081    -1.612928446     C.2   1  *****   -0.255585
   49   C49        7.247263209    -1.389396126    -0.252087371     C.2   1  *****    0.208995
   50   C50        6.363765927    -0.562012551     0.472941245     C.2   1  *****   -0.289714
   51   N51        8.357676678    -1.945976010     0.340167630     N.3   1  *****    0.100514
   52   C52        9.323936960    -2.651608029    -0.469703909     C.3   1  *****   -0.531693
   53   C53        8.699674173    -1.591784084     1.699722813     C.3   1  *****   -0.522722
   54   H54       -3.381557706    -3.315896924     2.738216535       H   1  *****    0.141671
   55   H55       -4.434321750    -1.126358261     2.233468648       H   1  *****    0.138341
   56   H56        0.887049455    -5.233510090     1.528720154       H   1  *****    0.162711
   57   H57       -1.354155705    -4.862623847     2.465084992       H   1  *****    0.164866
   58   H58        2.833449576    -4.359397384     0.109993379       H   1  *****    0.130548
   59   H59        3.813033312    -2.498992600    -1.184361740       H   1  *****    0.144534
   60   H60       -4.136024366     3.381526055     1.075208118       H   1  *****    0.235861
   61   H61       -5.774307332     2.889400036     0.547482130       H   1  *****    0.198017
   62   H62       -4.441380158     3.003772836    -0.634982123       H   1  *****    0.212011
   63   H63        4.830071933     1.191808125    -3.597567145       H   1  *****    0.197347
   64   H64        4.181575229     2.302403178    -2.360552275       H   1  *****    0.216718
   65   H65        3.079242208     1.565390443    -3.546398239       H   1  *****    0.245445
   66   H66       -4.116349089    -0.095087669    -1.559561394       H   1  *****    0.166437
   67   H67       -6.730182056     0.663549738     1.747369396       H   1  *****    0.149462
   68   H68       -8.342562676    -0.946681712     0.872640562       H   1  *****    0.162222
   69   H69       -5.694462261    -1.744923816    -2.443547713       H   1  *****    0.172146
   70   H70       -9.902327054    -3.356692206    -1.232971815       H   1  *****    0.186884
   71   H71       -9.267387239    -2.847692777     0.330996938       H   1  *****    0.141716
   72   H72       -9.930836988    -1.640209030    -0.789722901       H   1  *****    0.161624
   73   H73       -8.601734986    -3.766613960    -2.834154219       H   1  *****    0.189478
   74   H74       -6.856476026    -3.596504546    -2.641451379       H   1  *****    0.146707
   75   H75       -7.786056099    -2.312951583    -3.441263965       H   1  *****    0.169076
   76   H76        4.577567299     0.636245205     0.445258583       H   1  *****    0.146832
   77   H77        5.596504409    -1.292947582    -3.239988328       H   1  *****    0.148746
   78   H78        7.607517140    -2.231021142    -2.222059730       H   1  *****    0.157888
   79   H79        6.567398640    -0.318326645     1.507385723       H   1  *****    0.174793
   80   H80       10.129077213    -3.015004741     0.168779963       H   1  *****    0.197546
   81   H81        9.766450979    -2.014039806    -1.248535797       H   1  *****    0.169021
   82   H82        8.873773559    -3.521896070    -0.962387195       H   1  *****    0.149382
   83   H83        9.574495019    -2.164181652     2.008533582       H   1  *****    0.191927
   84   H84        8.930809888    -0.522978098     1.813854496       H   1  *****    0.171545
   85   H85        7.883396611    -1.835209320     2.389227663       H   1  *****    0.153210


@<TRIPOS>BOND
    1      1      2    2
    2      2      3    1
    3      3      4    2
    4      4      5    1
    5      5      6    2
    6      8      1    1
    7      1      6    1
    8      6      9    1
    9      7      8    2
   10      7     10    1
   11     11     10    2
   12     10      9    1
   13      9     12    2
   14     11     14    1
   15     12     13    1
   16     13     14    2
   17      4     15    1
   18     15     16    1
   19     15     17    2
   20     13     18    1
   21     18     19    1
   22     18     20    2
   23     16     21    1
   24     19     22    1
   25     23     27    2
   26     23     28    2
   27     24     29    2
   28     24     30    2
   29     25     31    2
   30     25     32    2
   31     23     33    1
   32     24     34    1
   33     25     35    1
   34      5     26    1
   35     12     26    1
   36     17     26    1
   37     20     26    1
   38     27     26    1
   39     28     26    1
   40     30     26    1
   41     29     26    1
   42     32     26    1
   43     31     26    1
   44     37     36    2
   45     36     38    1
   46     37     41    1
   47     38     39    2
   48     39     40    1
   49     40     41    2
   50     40     42    1
   51     42     43    1
   52     42     44    1
   53     16     36    1
   54     46     45    2
   55     45     47    1
   56     46     50    1
   57     47     48    2
   58     48     49    1
   59     49     50    2
   60     49     51    1
   61     51     52    1
   62     51     53    1
   63     19     45    1
   64      2     54    1
   65      3     55    1
   66      7     56    1
   67      8     57    1
   68     11     58    1
   69     14     59    1
   70     21     60    1
   71     21     61    1
   72     21     62    1
   73     22     63    1
   74     22     64    1
   75     22     65    1
   76     37     66    1
   77     38     67    1
   78     39     68    1
   79     41     69    1
   80     43     70    1
   81     43     71    1
   82     43     72    1
   83     44     73    1
   84     44     74    1
   85     44     75    1
   86     46     76    1
   87     47     77    1
   88     48     78    1
   89     50     79    1
   90     52     80    1
   91     52     81    1
   92     52     82    1
   93     53     83    1
   94     53     84    1
   95     53     85    1
#
#	File Created by: Spartan '14 Export
#

@<TRIPOS>MOLECULE
*****
73 83
SMALL
USER_CHARGES


@<TRIPOS>ATOM
    1   C1        -2.919546732    -2.866314123    -1.428211437     C.2   1  *****    0.077716
    2   C2        -4.147656005    -2.547555789    -0.818343402     C.2   1  *****   -0.069391
    3   C3        -4.204834040    -1.554099034     0.136261078     C.2   1  *****   -0.265381
    4   C4        -3.016569615    -0.894312697     0.498647233     C.2   1  *****    0.277324
    5   N5        -1.849654966    -1.212383393    -0.031209419       N   1  *****   -0.432268
    6   C6        -1.787532675    -2.154926181    -0.976572076     C.2   1  *****    0.245975
    7   C7        -1.548583007    -4.034007998    -3.063700501     C.2   1  *****   -0.202351
    8   C8        -2.758234685    -3.831679638    -2.471848647     C.2   1  *****   -0.218435
    9   C9        -0.502230348    -2.397135253    -1.573533851     C.2   1  *****    0.291021
   10   C10       -0.389478117    -3.303899909    -2.649715151     C.2   1  *****    0.043085
   11   C11        0.870230515    -3.390576242    -3.270101985     C.2   1  *****   -0.031232
   12   N12        0.531894579    -1.680642136    -1.116157471       N   1  *****   -0.581029
   13   C13        1.707533648    -1.762828505    -1.717688083     C.2   1  *****    0.535332
   14   C14        1.913878849    -2.605590680    -2.824344055     C.2   1  *****   -0.394415
   15   C15       -2.868950343     0.136633828     1.583944743     C.2   1  *****    0.472047
   16   N16       -3.858833353     1.020002159     1.838697871     N.3   1  *****   -0.216250
   17   O17       -1.827113137     0.121460397     2.252342248       O   1  *****   -0.529833
   18   C18        2.668886996    -0.712924086    -1.215128811     C.2   1  *****    0.339862
   19   N19        4.015271647    -0.906330619    -1.331452735     N.3   1  *****   -0.252464
   20   O20        2.164582389     0.329408574    -0.788880946       O   1  *****   -0.530679
   21   C21       -3.647478828     1.953678242     2.953606748     C.3   1  *****   -0.525118
   22   C22        4.582673590    -2.235015109    -1.081561077     C.3   1  *****   -0.541433
   23   N23        3.171251265    -0.852680927     1.817169140       N   1  *****    0.893718
   24   N24       -0.635828663     2.381379417     0.787226647       N   1  *****    0.927935
   25   N25       -0.027281804    -2.468742435     3.002369631       N   1  *****    0.851140
   26   Nd26       0.396456118    -0.318293358     1.139652692      Nd   1  *****    1.895329
   27   O27        2.444023797    -1.715893403     1.198184106       O   1  *****   -0.588415
   28   O28        2.597116708     0.234137318     2.118841807       O   1  *****   -0.510120
   29   O29       -0.874110334     1.476482860    -0.090840874       O   1  *****   -0.647058
   30   O30        0.247546752     2.094253527     1.652585725       O   1  *****   -0.551464
   31   O31       -0.314801577    -2.584366201     1.757076824       O   1  *****   -0.581712
   32   O32        0.454255889    -1.337187913     3.347939400       O   1  *****   -0.567140
   33   O33        4.342571926    -1.074697230     2.064895483       O   1  *****   -0.438965
   34   O34       -1.252431640     3.431399525     0.799041109       O   1  *****   -0.436427
   35   O35       -0.207220222    -3.369810177     3.789522210       O   1  *****   -0.404607
   36   C36       -4.778894598     1.422044316     0.822704125     C.2   1  *****    0.423393
   37   C37       -6.151170755     1.382007785     1.076573695     C.2   1  *****   -0.224750
   38   C38       -4.288518392     1.903280796    -0.393798730     C.2   1  *****   -0.245280
   39   C39       -5.180834653     2.306921849    -1.377503327     C.2   1  *****   -0.126594
   40   C40       -6.542543503     2.238500384    -1.117137819     C.2   1  *****   -0.032672
   41   C41       -7.044850197     1.791839527     0.099338370     C.2   1  *****   -0.137919
   42   N42       -7.486417477     2.655833330    -2.158684783       N   1  *****    0.718775
   43   O43       -8.682161483     2.589758927    -1.897380120     O.2   1  *****   -0.401179
   44   O44       -7.020303130     3.038353558    -3.224933589     O.2   1  *****   -0.400296
   45   C45        4.885450216     0.213787671    -1.208700840     C.2   1  *****    0.464651
   46   C46        6.051027737     0.130474577    -0.444664370     C.2   1  *****   -0.257361
   47   C47        4.601306138     1.385323942    -1.921202027     C.2   1  *****   -0.348338
   48   C48        5.470051021     2.459242240    -1.870638019     C.2   1  *****   -0.049657
   49   C49        6.629405525     2.352648716    -1.111111801     C.2   1  *****   -0.037508
   50   C50        6.927877591     1.204122924    -0.394773905     C.2   1  *****   -0.123577
   51   N51        7.559597207     3.478495849    -1.072118838       N   1  *****    0.701759
   52   O52        7.260708586     4.484538089    -1.707246745     O.2   1  *****   -0.405656
   53   O53        8.584727878     3.347056159    -0.411941283     O.2   1  *****   -0.400897
   54   H54       -5.047512202    -3.079719563    -1.110443437       H   1  *****    0.147194
   55   H55       -5.144851512    -1.289736825     0.603269802       H   1  *****    0.134294
   56   H56       -1.447816791    -4.750208320    -3.872828209       H   1  *****    0.168090
   57   H57       -3.628700908    -4.389314739    -2.802195523       H   1  *****    0.171713
   58   H58        1.006453422    -4.054292843    -4.118326294       H   1  *****    0.142774
   59   H59        2.871116039    -2.620703880    -3.331215312       H   1  *****    0.201251
   60   H60       -4.608896031     2.388178662     3.226084538       H   1  *****    0.191652
   61   H61       -2.954654986     2.746028024     2.653196906       H   1  *****    0.200190
   62   H62       -3.225181356     1.411339493     3.797827857       H   1  *****    0.230360
   63   H63        5.496123035    -2.357510972    -1.665573165       H   1  *****    0.186799
   64   H64        3.866880350    -3.003813019    -1.358078230       H   1  *****    0.207067
   65   H65        4.786891176    -2.351671560    -0.013865646       H   1  *****    0.202733
   66   H66       -6.510951161     1.018215764     2.033228282       H   1  *****    0.153654
   67   H67       -3.215718577     1.982580030    -0.548124079       H   1  *****    0.173276
   68   H68       -4.837991249     2.685639982    -2.331552629       H   1  *****    0.167057
   69   H69       -8.115154870     1.765059347     0.256124628       H   1  *****    0.161460
   70   H70        6.263589458    -0.752190667     0.142295278       H   1  *****    0.199204
   71   H71        3.696207873     1.453918661    -2.510713533       H   1  *****    0.211272
   72   H72        5.271756072     3.372573964    -2.415719842       H   1  *****    0.141020
   73   H73        7.831980658     1.164496183     0.198177263       H   1  *****    0.157749


@<TRIPOS>BOND
    1      1      2    2
    2      2      3    1
    3      3      4    2
    4      4      5    1
    5      5      6    2
    6      8      1    1
    7      1      6    1
    8      6      9    1
    9      7      8    2
   10      7     10    1
   11     11     10    2
   12     10      9    1
   13      9     12    2
   14     11     14    1
   15     12     13    1
   16     13     14    2
   17      4     15    1
   18     15     16    1
   19     15     17    2
   20     13     18    1
   21     18     19    1
   22     18     20    2
   23     16     21    1
   24     19     22    1
   25     23     27    2
   26     23     28    2
   27     24     29    2
   28     24     30    2
   29     25     31    2
   30     25     32    2
   31     23     33    1
   32     24     34    1
   33     25     35    1
   34      5     26    1
   35     12     26    1
   36     17     26    1
   37     20     26    1
   38     27     26    1
   39     28     26    1
   40     30     26    1
   41     29     26    1
   42     32     26    1
   43     31     26    1
   44     37     36    2
   45     36     38    1
   46     37     41    1
   47     38     39    2
   48     39     40    1
   49     40     41    2
   50     40     42    1
   51     42     43    2
   52     42     44    2
   53     16     36    1
   54     46     45    2
   55     45     47    1
   56     46     50    1
   57     47     48    2
   58     48     49    1
   59     49     50    2
   60     49     51    1
   61     51     52    2
   62     51     53    2
   63     19     45    1
   64      2     54    1
   65      3     55    1
   66      7     56    1
   67      8     57    1
   68     11     58    1
   69     14     59    1
   70     21     60    1
   71     21     61    1
   72     21     62    1
   73     22     63    1
   74     22     64    1
   75     22     65    1
   76     37     66    1
   77     38     67    1
   78     39     68    1
   79     41     69    1
   80     46     70    1
   81     47     71    1
   82     48     72    1
   83     50     73    1
#
#	File Created by: Spartan '14 Export
#

@<TRIPOS>MOLECULE
*****
75 85
SMALL
USER_CHARGES


@<TRIPOS>ATOM
    1   C1        -0.061702591    -3.880588643     0.539469570     C.2   1  *****   -0.148437
    2   C2        -1.386454024    -4.232921198     0.906195392     C.2   1  *****    0.486621
    3   C3        -2.338135449    -3.227061159     0.950041182     C.2   1  *****   -0.553344
    4   C4        -2.000482710    -1.914406041     0.586308562     C.2   1  *****    0.459461
    5   N5        -0.772984424    -1.594370257     0.215976134       N   1  *****   -0.580164
    6   C6         0.185098944    -2.528460780     0.222487121     C.2   1  *****    0.329256
    7   C7         2.306252475    -4.368035293     0.224401155     C.2   1  *****   -0.159868
    8   C8         1.040117594    -4.790699499     0.504344573     C.2   1  *****   -0.160178
    9   C9         1.527185813    -2.076223266    -0.035510756     C.2   1  *****    0.285229
   10   C10        2.598916293    -2.991941394    -0.029981065     C.2   1  *****   -0.110427
   11   C11        3.901311064    -2.474918418    -0.261712923     C.2   1  *****    0.442739
   12   N12        1.684512796    -0.762202638    -0.231021151       N   1  *****   -0.461783
   13   C13        2.900251200    -0.279929236    -0.401616173     C.2   1  *****    0.223802
   14   C14        4.033545191    -1.108895421    -0.432860265     C.2   1  *****   -0.410976
   15   C15       -2.865819826    -0.685976169     0.764450169     C.2   1  *****    0.457672
   16   O16       -2.269901686     0.375285500     0.989441127       O   1  *****   -0.603765
   17   N17       -4.212522591    -0.786495976     0.784750937     N.3   1  *****   -0.188862
   18   C18       -4.953636876    -1.755046051    -0.017202230     C.3   1  *****   -0.676351
   19   C19        2.879515573     1.200113674    -0.672604677     C.2   1  *****    0.581210
   20   N20        3.906562026     1.988560896    -0.295805676     N.3   1  *****   -0.264449
   21   O21        1.898761198     1.659050204    -1.275617299       O   1  *****   -0.560219
   22   C22        3.805000973     3.412733417    -0.632767985     C.3   1  *****   -0.601882
   23   N23        0.569492630     2.720116708     1.144234459       N   1  *****    0.940767
   24   N24        0.238833910     0.239611631    -3.555823287       N   1  *****    0.862672
   25   N25       -3.109719924     0.755303174    -1.947996778       N   1  *****    0.901764
   26   Nd26      -0.420963374     0.796937061    -0.800783456      Nd   1  *****    1.917374
   27   O27       -2.386319338    -0.300095318    -1.860764496       O   1  *****   -0.596193
   28   O28       -2.595813093     1.822387343    -1.503809867       O   1  *****   -0.528911
   29   O29       -4.241772219     0.707695742    -2.405443706       O   1  *****   -0.452678
   30   O30       -0.266813919     1.349290274    -3.177513936       O   1  *****   -0.572081
   31   O31        0.417927598    -0.628396954    -2.630915176       O   1  *****   -0.584637
   32   O32        0.536950441     0.019659633    -4.710006147       O   1  *****   -0.420871
   33   O33        0.757234946     1.466105048     1.324026596       O   1  *****   -0.633827
   34   O34       -0.244100757     3.033724698     0.218337006       O   1  *****   -0.565080
   35   O35        1.163196034     3.554581405     1.803725818       O   1  *****   -0.449985
   36   C36       -4.966451183     0.307708102     1.343990842     C.2   1  *****    0.485878
   37   C37       -5.452789520     1.333155311     0.538601367     C.2   1  *****   -0.309954
   38   C38       -5.216941005     0.297562064     2.713067307     C.2   1  *****   -0.310556
   39   C39       -5.960655759     1.323494709     3.285291079     C.2   1  *****   -0.067474
   40   C40       -6.453028708     2.351586614     2.487865404     C.2   1  *****   -0.160220
   41   C41       -6.196878001     2.354039174     1.120126328     C.2   1  *****   -0.059335
   42   C42        4.763095281     1.639155612     0.797700058     C.2   1  *****    0.507394
   43   C43        4.203073563     1.376995078     2.047815522     C.2   1  *****   -0.292161
   44   C44        6.145016815     1.621765842     0.617392146     C.2   1  *****   -0.307294
   45   C45        6.972452098     1.314540566     1.691233926     C.2   1  *****   -0.098245
   46   C46        6.420708376     1.026891435     2.937663518     C.2   1  *****   -0.137399
   47   C47        5.040645189     1.060723418     3.112896693     C.2   1  *****   -0.101741
   48   C48        5.098874014    -3.374893816    -0.310587723     C.3   1  *****   -0.750563
   49   C49       -1.741215251    -5.642335013     1.272064721     C.3   1  *****   -0.721393
   50   H50       -3.342929323    -3.456394468     1.284052536       H   1  *****    0.226257
   51   H51        3.116204121    -5.088319359     0.212653923       H   1  *****    0.154417
   52   H52        0.862552542    -5.839182852     0.714463991       H   1  *****    0.151720
   53   H53        5.013518730    -0.676453387    -0.591999860       H   1  *****    0.160414
   54   H54       -5.589446133    -2.386804658     0.611041928       H   1  *****    0.199688
   55   H55       -4.265895311    -2.366831458    -0.597439873       H   1  *****    0.236253
   56   H56       -5.580431397    -1.209890199    -0.727130235       H   1  *****    0.243251
   57   H57        4.797079861     3.856674345    -0.552826179       H   1  *****    0.210015
   58   H58        3.118503475     3.916230391     0.055982093       H   1  *****    0.215185
   59   H59        3.425289574     3.515032697    -1.648143223       H   1  *****    0.243842
   60   H60       -5.230991942     1.347052258    -0.523373861       H   1  *****    0.176513
   61   H61       -4.822903879    -0.510116143     3.321570365       H   1  *****    0.144457
   62   H62       -6.152363981     1.318958103     4.353417716       H   1  *****    0.122905
   63   H63       -7.030667995     3.155075019     2.933581305       H   1  *****    0.129471
   64   H64       -6.566186320     3.162257579     0.497604603       H   1  *****    0.128315
   65   H65        3.125981889     1.447349649     2.174842433       H   1  *****    0.166747
   66   H66        6.560465420     1.841408910    -0.361275865       H   1  *****    0.156316
   67   H67        8.048730168     1.297382023     1.553526407       H   1  *****    0.131962
   68   H68        7.068848788     0.787021562     3.774361982       H   1  *****    0.129807
   69   H69        4.609561678     0.856369156     4.087506992       H   1  *****    0.141070
   70   H70        5.233331405    -3.913157974     0.633997385       H   1  *****    0.200000
   71   H71        6.009182941    -2.804210335    -0.502752251       H   1  *****    0.218012
   72   H72        4.999087424    -4.126719694    -1.100703880       H   1  *****    0.218920
   73   H73       -1.150462812    -5.995020695     2.124195286       H   1  *****    0.198935
   74   H74       -2.797100216    -5.726818323     1.535921678       H   1  *****    0.206053
   75   H75       -1.547517145    -6.326884817     0.439218481       H   1  *****    0.208940


@<TRIPOS>BOND
    1      1      2    2
    2      2      3    1
    3      3      4    2
    4      4      5    1
    5      5      6    2
    6      6      9    1
    7      1      6    1
    8      7      8    2
    9      7     10    1
   10      9     12    2
   11     10      9    1
   12     11     10    2
   13     11     14    1
   14     12     13    1
   15     13     14    2
   16      8      1    1
   17      4     15    1
   18     15     16    2
   19     15     17    1
   20     17     18    1
   21     13     19    1
   22     19     20    1
   23     19     21    2
   24     20     22    1
   25      5     26    1
   26     12     26    1
   27     16     26    1
   28     21     26    1
   29     25     27    2
   30     25     28    2
   31     25     29    1
   32     24     30    2
   33     24     31    2
   34     24     32    1
   35     23     33    2
   36     23     34    2
   37     23     35    1
   38     28     26    1
   39     27     26    1
   40     30     26    1
   41     31     26    1
   42     34     26    1
   43     33     26    1
   44     37     36    2
   45     36     38    1
   46     37     41    1
   47     38     39    2
   48     39     40    1
   49     40     41    2
   50     17     36    1
   51     43     42    2
   52     42     44    1
   53     43     47    1
   54     44     45    2
   55     45     46    1
   56     46     47    2
   57     20     42    1
   58     11     48    1
   59      2     49    1
   60      3     50    1
   61      7     51    1
   62      8     52    1
   63     14     53    1
   64     18     54    1
   65     18     55    1
   66     18     56    1
   67     22     57    1
   68     22     58    1
   69     22     59    1
   70     37     60    1
   71     38     61    1
   72     39     62    1
   73     40     63    1
   74     41     64    1
   75     43     65    1
   76     44     66    1
   77     45     67    1
   78     46     68    1
   79     47     69    1
   80     48     70    1
   81     48     71    1
   82     48     72    1
   83     49     73    1
   84     49     74    1
   85     49     75    1
#
#	File Created by: Spartan '14 Export
#

@<TRIPOS>MOLECULE
*****
69 79
SMALL
USER_CHARGES


@<TRIPOS>ATOM
    1   C1        -0.040237447    -3.727634775     0.361493884     C.2   1  *****   -0.011098
    2   C2        -1.365761126    -4.086902356     0.690274103     C.2   1  *****    0.205093
    3   C3        -2.358867985    -3.130887015     0.773097689     C.2   1  *****   -0.450901
    4   C4        -2.037299655    -1.800098961     0.469320502     C.2   1  *****    0.507439
    5   N5        -0.809667117    -1.442728605     0.132449921       N   1  *****   -0.567182
    6   C6         0.168698675    -2.352686884     0.110492037     C.2   1  *****    0.298559
    7   C7         2.334434943    -4.152873604     0.055684173     C.2   1  *****   -0.185513
    8   C8         1.076544469    -4.615516785     0.299186436     C.2   1  *****   -0.179387
    9   C9         1.504908026    -1.859001456    -0.108345526     C.2   1  *****    0.240064
   10   C10        2.591082130    -2.760392201    -0.128998205     C.2   1  *****    0.027639
   11   C11        3.862721059    -2.172909048    -0.316497121     C.2   1  *****    0.159651
   12   N12        1.636509234    -0.536233812    -0.241321991       N   1  *****   -0.431545
   13   C13        2.840168405    -0.012972536    -0.376863722     C.2   1  *****    0.263281
   14   C14        3.998070747    -0.805717631    -0.429270871     C.2   1  *****   -0.301643
   15   C15       -2.932274803    -0.598594059     0.691309189     C.2   1  *****    0.381178
   16   O16       -2.356794399     0.459021743     0.976601311       O   1  *****   -0.584223
   17   N17       -4.274616413    -0.728464445     0.685444527     N.3   1  *****   -0.146979
   18   C18       -4.984570664    -1.679024221    -0.166231372     C.3   1  *****   -0.675493
   19   C19        2.786092206     1.477080013    -0.592769909     C.2   1  *****    0.503679
   20   N20        3.789290867     2.272273561    -0.176289424     N.3   1  *****   -0.214427
   21   O21        1.800180646     1.928825249    -1.192478753       O   1  *****   -0.546739
   22   C22        3.663878257     3.705258747    -0.464596290     C.3   1  *****   -0.570711
   23   N23        0.424924336     2.855879503     1.264820357       N   1  *****    0.939392
   24   N24        0.194668141     0.525957772    -3.532612654       N   1  *****    0.858990
   25   N25       -3.176979645     0.953738857    -1.953035273       N   1  *****    0.899200
   26   Nd26      -0.506803850     1.009268785    -0.776294106      Nd   1  *****    1.909188
   27   O27       -2.435575876    -0.091594820    -1.893422957       O   1  *****   -0.595763
   28   O28       -2.685814961     2.013005823    -1.464179205       O   1  *****   -0.526971
   29   O29       -4.301096592     0.903835264    -2.426356674       O   1  *****   -0.444906
   30   O30       -0.329924502     1.619603361    -3.132953791       O   1  *****   -0.569487
   31   O31        0.377172001    -0.360527726    -2.624777104       O   1  *****   -0.582148
   32   O32        0.506282491     0.336486081    -4.687500817       O   1  *****   -0.414321
   33   O33        0.641046318     1.598672310     1.383716342       O   1  *****   -0.638649
   34   O34       -0.389564715     3.195174536     0.348208509       O   1  *****   -0.562448
   35   O35        0.993629934     3.669818195     1.969068481       O   1  *****   -0.445105
   36   C36       -5.060659215     0.320873460     1.287004009     C.2   1  *****    0.473725
   37   C37       -5.561892779     1.371828956     0.525276075     C.2   1  *****   -0.304303
   38   C38       -5.325384912     0.238547596     2.650955023     C.2   1  *****   -0.304078
   39   C39       -6.099104961     1.218783470     3.261835739     C.2   1  *****   -0.067203
   40   C40       -6.606328279     2.272725476     2.508542672     C.2   1  *****   -0.161040
   41   C41       -6.335646629     2.346766220     1.145605034     C.2   1  *****   -0.059326
   42   C42        4.648843456     1.896165588     0.907090382     C.2   1  *****    0.446669
   43   C43        4.087483125     1.582266572     2.144635727     C.2   1  *****   -0.276851
   44   C44        6.031167604     1.899598717     0.729270476     C.2   1  *****   -0.259780
   45   C45        6.858167948     1.558756172     1.793166596     C.2   1  *****   -0.124246
   46   C46        6.305859337     1.220010729     3.026491015     C.2   1  *****   -0.133468
   47   C47        4.925360956     1.234750795     3.199669737     C.2   1  *****   -0.105797
   48   Cl48       5.281684224    -3.170355745    -0.392900651      Cl   1  *****   -0.054440
   49   Cl49      -1.761171554    -5.739113964     1.045325036      Cl   1  *****   -0.053824
   50   H50       -3.355968411    -3.410939518     1.084569440       H   1  *****    0.214358
   51   H51        3.167267556    -4.844446027     0.017971952       H   1  *****    0.157352
   52   H52        0.910762947    -5.673949274     0.458941185       H   1  *****    0.157029
   53   H53        4.975530300    -0.360429954    -0.553205530       H   1  *****    0.148244
   54   H54       -5.617297337    -2.346140853     0.427169592       H   1  *****    0.201996
   55   H55       -4.277730659    -2.253721685    -0.761269216       H   1  *****    0.233233
   56   H56       -5.611158331    -1.117667960    -0.863461413       H   1  *****    0.241909
   57   H57        4.647988912     4.162708359    -0.366040102       H   1  *****    0.201666
   58   H58        2.967773010     4.172243392     0.239837577       H   1  *****    0.210164
   59   H59        3.284643047     3.835875980    -1.476828017       H   1  *****    0.235637
   60   H60       -5.329966740     1.440871816    -0.532209583       H   1  *****    0.173044
   61   H61       -4.920625173    -0.588428867     3.225515693       H   1  *****    0.142859
   62   H62       -6.302816472     1.158332630     4.325979916       H   1  *****    0.124618
   63   H63       -7.207595875     3.040140652     2.985287624       H   1  *****    0.131310
   64   H64       -6.717190304     3.174732017     0.557529139       H   1  *****    0.129398
   65   H65        3.009364310     1.635972563     2.271039231       H   1  *****    0.165680
   66   H66        6.447806919     2.158700405    -0.239206686       H   1  *****    0.148632
   67   H67        7.934640126     1.554048374     1.657347194       H   1  *****    0.141129
   68   H68        6.954229542     0.952896261     3.854538122       H   1  *****    0.135052
   69   H69        4.493955688     0.988953342     4.164421891       H   1  *****    0.142938


@<TRIPOS>BOND
    1      1      2    2
    2      2      3    1
    3      3      4    2
    4      4      5    1
    5      5      6    2
    6      6      9    1
    7      1      6    1
    8      7      8    2
    9      7     10    1
   10      9     12    2
   11     10      9    1
   12     11     10    2
   13     11     14    1
   14     12     13    1
   15     13     14    2
   16      8      1    1
   17      4     15    1
   18     15     16    2
   19     15     17    1
   20     17     18    1
   21     13     19    1
   22     19     20    1
   23     19     21    2
   24     20     22    1
   25      5     26    1
   26     12     26    1
   27     16     26    1
   28     21     26    1
   29     25     27    2
   30     25     28    2
   31     25     29    1
   32     24     30    2
   33     24     31    2
   34     24     32    1
   35     23     33    2
   36     23     34    2
   37     23     35    1
   38     28     26    1
   39     27     26    1
   40     30     26    1
   41     31     26    1
   42     34     26    1
   43     33     26    1
   44     37     36    2
   45     36     38    1
   46     37     41    1
   47     38     39    2
   48     39     40    1
   49     40     41    2
   50     17     36    1
   51     43     42    2
   52     42     44    1
   53     43     47    1
   54     44     45    2
   55     45     46    1
   56     46     47    2
   57     20     42    1
   58     11     48    1
   59      2     49    1
   60      3     50    1
   61      7     51    1
   62      8     52    1
   63     14     53    1
   64     18     54    1
   65     18     55    1
   66     18     56    1
   67     22     57    1
   68     22     58    1
   69     22     59    1
   70     37     60    1
   71     38     61    1
   72     39     62    1
   73     40     63    1
   74     41     64    1
   75     43     65    1
   76     44     66    1
   77     45     67    1
   78     46     68    1
   79     47     69    1
#
#	File Created by: Spartan '14 Export
#

@<TRIPOS>MOLECULE
*****
69 79
SMALL
USER_CHARGES


@<TRIPOS>ATOM
    1   C1        -0.060342720    -3.882589284     0.546001418     C.2   1  *****   -0.113705
    2   C2        -1.384829774    -4.188906275     0.900467125     C.2   1  *****    0.440823
    3   C3        -2.367421667    -3.225321865     0.953760463     C.2   1  *****   -0.556654
    4   C4        -2.020975183    -1.915554587     0.586832148     C.2   1  *****    0.496835
    5   N5        -0.789970245    -1.598770937     0.219210188       N   1  *****   -0.579264
    6   C6         0.170568953    -2.528717919     0.227083196     C.2   1  *****    0.314003
    7   C7         2.290430821    -4.399396719     0.257409326     C.2   1  *****   -0.170748
    8   C8         1.021913500    -4.814449222     0.533016444     C.2   1  *****   -0.157986
    9   C9         1.513625464    -2.085002636    -0.025952332     C.2   1  *****    0.282235
   10   C10        2.564828881    -3.022505760    -0.004291656     C.2   1  *****   -0.080012
   11   C11        3.844851931    -2.484192680    -0.226790636     C.2   1  *****    0.397255
   12   N12        1.691825981    -0.775695304    -0.224945445       N   1  *****   -0.468771
   13   C13        2.913547656    -0.302810339    -0.391631281     C.2   1  *****    0.264999
   14   C14        4.044559546    -1.136506350    -0.409889212     C.2   1  *****   -0.419853
   15   C15       -2.882763377    -0.682291300     0.766335295     C.2   1  *****    0.417376
   16   O16       -2.278110761     0.373173354     0.991896235       O   1  *****   -0.591517
   17   N17       -4.227984636    -0.779172492     0.787807481     N.3   1  *****   -0.160620
   18   C18       -4.974628580    -1.752393533    -0.004085806     C.3   1  *****   -0.674611
   19   C19        2.900771921     1.178276507    -0.670115447     C.2   1  *****    0.541962
   20   N20        3.931486728     1.961301659    -0.298904206     N.3   1  *****   -0.231955
   21   O21        1.918930010     1.634692100    -1.272241525       O   1  *****   -0.551779
   22   C22        3.837674104     3.385495858    -0.638708316     C.3   1  *****   -0.588868
   23   N23        0.597847037     2.707024622     1.141711422       N   1  *****    0.941812
   24   N24        0.251135502     0.219633476    -3.545502270       N   1  *****    0.858194
   25   N25       -3.102972358     0.763995272    -1.942475664       N   1  *****    0.903329
   26   Nd26      -0.417048665     0.797508698    -0.799549473      Nd   1  *****    1.915213
   27   O27       -2.386403955    -0.296303301    -1.851634309       O   1  *****   -0.599390
   28   O28       -2.579579979     1.829045181    -1.502575532       O   1  *****   -0.528812
   29   O29       -4.235022411     0.723113826    -2.397932414       O   1  *****   -0.447339
   30   O30       -0.246813036     1.335567813    -3.174192594       O   1  *****   -0.569950
   31   O31        0.418643235    -0.645079015    -2.614283018       O   1  *****   -0.581821
   32   O32        0.552639349    -0.008717981    -4.696196718       O   1  *****   -0.413728
   33   O33        0.766272834     1.450326283     1.323730376       O   1  *****   -0.635369
   34   O34       -0.213259653     3.031092388     0.216806488       O   1  *****   -0.565323
   35   O35        1.206734614     3.533140085     1.797022543       O   1  *****   -0.446022
   36   C36       -4.979149329     0.317726762     1.347081710     C.2   1  *****    0.469857
   37   C37       -5.461021125     1.344064659     0.540308317     C.2   1  *****   -0.306848
   38   C38       -5.231045059     0.307516411     2.715810506     C.2   1  *****   -0.305459
   39   C39       -5.973064101     1.335434596     3.286523621     C.2   1  *****   -0.066940
   40   C40       -6.461326686     2.364770486     2.488077621     C.2   1  *****   -0.156915
   41   C41       -6.203127697     2.366958259     1.120693285     C.2   1  *****   -0.059310
   42   C42        4.796555428     1.603494802     0.785811160     C.2   1  *****    0.457766
   43   C43        4.246041051     1.356751035     2.043231514     C.2   1  *****   -0.272622
   44   C44        6.175048646     1.556563194     0.586690092     C.2   1  *****   -0.285364
   45   C45        7.008784626     1.232832029     1.650765474     C.2   1  *****   -0.101444
   46   C46        6.466423764     0.959970614     2.904697770     C.2   1  *****   -0.133761
   47   C47        5.089963310     1.025207941     3.098581075     C.2   1  *****   -0.109423
   48   F48        4.885809545    -3.315734620    -0.242382446       F   1  *****   -0.155460
   49   F49       -1.678449216    -5.443925644     1.235202167       F   1  *****   -0.157916
   50   H50       -3.360957648    -3.489636240     1.290282843       H   1  *****    0.246510
   51   H51        3.113540708    -5.103910350     0.252710081       H   1  *****    0.169241
   52   H52        0.816051714    -5.854400180     0.756084338       H   1  *****    0.166516
   53   H53        5.043862939    -0.749037688    -0.553281313       H   1  *****    0.184805
   54   H54       -5.604533671    -2.381817623     0.632168821       H   1  *****    0.202756
   55   H55       -4.292591668    -2.365811252    -0.589459087       H   1  *****    0.234883
   56   H56       -5.608242602    -1.209617416    -0.709561903       H   1  *****    0.243173
   57   H57        4.832885449     3.822657641    -0.562217518       H   1  *****    0.207971
   58   H58        3.156340111     3.893698673     0.051671462       H   1  *****    0.213718
   59   H59        3.455670777     3.488446946    -1.653222198       H   1  *****    0.240544
   60   H60       -5.237654791     1.356806619    -0.521360599       H   1  *****    0.175665
   61   H61       -4.840630786    -0.501309825     3.325094338       H   1  *****    0.144665
   62   H62       -6.166859560     1.331302539     4.354197359       H   1  *****    0.124134
   63   H63       -7.037871601     3.169501614     2.932860614       H   1  *****    0.129752
   64   H64       -6.569834136     3.175953443     0.497723972       H   1  *****    0.129230
   65   H65        3.172083027     1.448857236     2.182164230       H   1  *****    0.162032
   66   H66        6.582299509     1.764520505    -0.397921631       H   1  *****    0.154765
   67   H67        8.082356497     1.189721733     1.499399818       H   1  *****    0.135854
   68   H68        7.119873387     0.705785447     3.732867918       H   1  *****    0.133294
   69   H69        4.667556601     0.831760722     4.079099615       H   1  *****    0.144392


@<TRIPOS>BOND
    1      1      2    2
    2      2      3    1
    3      3      4    2
    4      4      5    1
    5      5      6    2
    6      6      9    1
    7      1      6    1
    8      7      8    2
    9      7     10    1
   10      9     12    2
   11     10      9    1
   12     11     10    2
   13     11     14    1
   14     12     13    1
   15     13     14    2
   16      8      1    1
   17      4     15    1
   18     15     16    2
   19     15     17    1
   20     17     18    1
   21     13     19    1
   22     19     20    1
   23     19     21    2
   24     20     22    1
   25      5     26    1
   26     12     26    1
   27     16     26    1
   28     21     26    1
   29     25     27    2
   30     25     28    2
   31     25     29    1
   32     24     30    2
   33     24     31    2
   34     24     32    1
   35     23     33    2
   36     23     34    2
   37     23     35    1
   38     28     26    1
   39     27     26    1
   40     30     26    1
   41     31     26    1
   42     34     26    1
   43     33     26    1
   44     37     36    2
   45     36     38    1
   46     37     41    1
   47     38     39    2
   48     39     40    1
   49     40     41    2
   50     17     36    1
   51     43     42    2
   52     42     44    1
   53     43     47    1
   54     44     45    2
   55     45     46    1
   56     46     47    2
   57     20     42    1
   58     11     48    1
   59      2     49    1
   60      3     50    1
   61      7     51    1
   62      8     52    1
   63     14     53    1
   64     18     54    1
   65     18     55    1
   66     18     56    1
   67     22     57    1
   68     22     58    1
   69     22     59    1
   70     37     60    1
   71     38     61    1
   72     39     62    1
   73     40     63    1
   74     41     64    1
   75     43     65    1
   76     44     66    1
   77     45     67    1
   78     46     68    1
   79     47     69    1
#
#	File Created by: Spartan '14 Export
#

@<TRIPOS>MOLECULE
*****
73 83
SMALL
USER_CHARGES


@<TRIPOS>ATOM
    1   C1        -0.032157839    -3.623760945     0.323926929     C.2   1  *****   -0.013587
    2   C2        -1.364454193    -3.979310198     0.638375794     C.2   1  *****    0.057259
    3   C3        -2.369522064    -3.038740874     0.702668356     C.2   1  *****   -0.422018
    4   C4        -2.059142674    -1.703382669     0.419555889     C.2   1  *****    0.535438
    5   N5        -0.826504875    -1.341254516     0.105761171       N   1  *****   -0.568160
    6   C6         0.161325565    -2.239566964     0.080680915     C.2   1  *****    0.331158
    7   C7         2.352568296    -3.999627621    -0.029862963     C.2   1  *****   -0.213506
    8   C8         1.105436953    -4.484512413     0.229245451     C.2   1  *****   -0.172851
    9   C9         1.492849404    -1.719572588    -0.134016692     C.2   1  *****    0.248108
   10   C10        2.600322610    -2.600059970    -0.189569607     C.2   1  *****    0.051896
   11   C11        3.850444721    -1.956801581    -0.359681032     C.2   1  *****   -0.000903
   12   N12        1.593362126    -0.391085188    -0.235011878       N   1  *****   -0.423649
   13   C13        2.778933326     0.176348270    -0.346042645     C.2   1  *****    0.284626
   14   C14        3.953725651    -0.585995617    -0.413296101     C.2   1  *****   -0.260296
   15   C15       -2.965935825    -0.512073396     0.643768359     C.2   1  *****    0.365669
   16   O16       -2.397506352     0.546854392     0.942189135       O   1  *****   -0.583764
   17   N17       -4.304584893    -0.651852969     0.626243219     N.3   1  *****   -0.134330
   18   C18       -5.004482953    -1.618092084    -0.217176389     C.3   1  *****   -0.678158
   19   C19        2.692980571     1.667713064    -0.536653061     C.2   1  *****    0.483096
   20   N20        3.671264937     2.471116421    -0.086301283     N.3   1  *****   -0.192821
   21   O21        1.709593648     2.104472081    -1.152493031       O   1  *****   -0.549705
   22   C22        3.535970593     3.907119475    -0.352749795     C.3   1  *****   -0.577035
   23   N23        0.292121943     2.961343716     1.306527217       N   1  *****    0.942726
   24   N24        0.187228129     0.650459498    -3.521506694       N   1  *****    0.857129
   25   N25       -3.221547682     1.019227825    -1.998885691       N   1  *****    0.896559
   26   Nd26      -0.576566533     1.144959667    -0.783410197      Nd   1  *****    1.915773
   27   O27       -2.457834090    -0.009993681    -1.922750598       O   1  *****   -0.595032
   28   O28       -2.758138849     2.091360538    -1.509256706       O   1  *****   -0.528442
   29   O29       -4.336902535     0.943117256    -2.485784975       O   1  *****   -0.437664
   30   O30       -0.364996735     1.736565831    -3.140251788       O   1  *****   -0.567650
   31   O31        0.370480760    -0.225478072    -2.601388078       O   1  *****   -0.586769
   32   O32        0.523162023     0.455952985    -4.667675467       O   1  *****   -0.405373
   33   O33        0.534020196     1.705657553     1.398008940       O   1  *****   -0.642844
   34   O34       -0.514828275     3.305065148     0.384479419       O   1  *****   -0.562334
   35   O35        0.830877599     3.768877199     2.039571975       O   1  *****   -0.440824
   36   C36       -5.103502345     0.389283537     1.226831894     C.2   1  *****    0.452295
   37   C37       -5.624424484     1.426696440     0.460045037     C.2   1  *****   -0.299038
   38   C38       -5.359466456     0.311302642     2.592585814     C.2   1  *****   -0.288040
   39   C39       -6.145186310     1.283782961     3.200392742     C.2   1  *****   -0.074353
   40   C40       -6.672262282     2.324683896     2.442554930     C.2   1  *****   -0.157443
   41   C41       -6.409830594     2.393903934     1.077773037     C.2   1  *****   -0.060964
   42   C42        4.527220264     2.078875505     0.995164946     C.2   1  *****    0.434240
   43   C43        3.957601464     1.731734063     2.220249896     C.2   1  *****   -0.282965
   44   C44        5.910733983     2.095897441     0.827448602     C.2   1  *****   -0.265983
   45   C45        6.731083121     1.733096852     1.888900937     C.2   1  *****   -0.099109
   46   C46        6.171400893     1.362340067     3.109691045     C.2   1  *****   -0.137745
   47   C47        4.789778513     1.364921681     3.273335195     C.2   1  *****   -0.098015
   48   N48        5.116084490    -2.704196401    -0.482950752       N   1  *****    0.725434
   49   O49        5.059025560    -3.881104732    -0.815563729     O.2   1  *****   -0.380695
   50   O50        6.148036113    -2.087435420    -0.261086557     O.2   1  *****   -0.383014
   51   N51       -1.761366080    -5.363602505     0.962014690       N   1  *****    0.727891
   52   O52       -2.949678965    -5.633768592     0.863736625     O.2   1  *****   -0.375817
   53   O53       -0.890214571    -6.142867961     1.325301493     O.2   1  *****   -0.393342
   54   H54       -3.365156999    -3.351106516     0.983249674       H   1  *****    0.218327
   55   H55        3.183054999    -4.685204948    -0.100307025       H   1  *****    0.191786
   56   H56        0.970147792    -5.544631474     0.378678227       H   1  *****    0.192605
   57   H57        4.928547835    -0.129993716    -0.508990848       H   1  *****    0.153019
   58   H58       -5.617593484    -2.296682188     0.383122643       H   1  *****    0.210093
   59   H59       -4.294385647    -2.178430850    -0.822111816       H   1  *****    0.230351
   60   H60       -5.649040399    -1.067749425    -0.906338013       H   1  *****    0.246507
   61   H61        4.517735837     4.369009870    -0.251738290       H   1  *****    0.203943
   62   H62        2.841119526     4.358550470     0.362844481       H   1  *****    0.212400
   63   H63        3.151137712     4.050186770    -1.361099625       H   1  *****    0.239222
   64   H64       -5.398733653     1.492103690    -0.598947171       H   1  *****    0.172004
   65   H65       -4.940512297    -0.505921667     3.170813049       H   1  *****    0.142745
   66   H66       -6.343154007     1.227091890     4.265729050       H   1  *****    0.128323
   67   H67       -7.283227049     3.085610264     2.917173147       H   1  *****    0.133554
   68   H68       -6.807318028     3.211701438     0.486149546       H   1  *****    0.131392
   69   H69        2.878252523     1.775860149     2.339465331       H   1  *****    0.165548
   70   H70        6.334046060     2.378498373    -0.131453051       H   1  *****    0.152566
   71   H71        7.808183484     1.733936785     1.760044564       H   1  *****    0.140644
   72   H72        6.815369532     1.077759617     3.935210224       H   1  *****    0.137290
   73   H73        4.352926657     1.093514417     4.228691358       H   1  *****    0.142626


@<TRIPOS>BOND
    1      1      2    2
    2      2      3    1
    3      3      4    2
    4      4      5    1
    5      5      6    2
    6      6      9    1
    7      1      6    1
    8      7      8    2
    9      7     10    1
   10      9     12    2
   11     10      9    1
   12     11     10    2
   13     11     14    1
   14     12     13    1
   15     13     14    2
   16      8      1    1
   17      4     15    1
   18     15     16    2
   19     15     17    1
   20     17     18    1
   21     13     19    1
   22     19     20    1
   23     19     21    2
   24     20     22    1
   25      5     26    1
   26     12     26    1
   27     16     26    1
   28     21     26    1
   29     25     27    2
   30     25     28    2
   31     25     29    1
   32     24     30    2
   33     24     31    2
   34     24     32    1
   35     23     33    2
   36     23     34    2
   37     23     35    1
   38     28     26    1
   39     27     26    1
   40     30     26    1
   41     31     26    1
   42     34     26    1
   43     33     26    1
   44     37     36    2
   45     36     38    1
   46     37     41    1
   47     38     39    2
   48     39     40    1
   49     40     41    2
   50     17     36    1
   51     43     42    2
   52     42     44    1
   53     43     47    1
   54     44     45    2
   55     45     46    1
   56     46     47    2
   57     20     42    1
   58     48     49    2
   59     48     50    2
   60     11     48    1
   61     51     52    2
   62     51     53    2
   63      2     51    1
   64      3     54    1
   65      7     55    1
   66      8     56    1
   67     14     57    1
   68     18     58    1
   69     18     59    1
   70     18     60    1
   71     22     61    1
   72     22     62    1
   73     22     63    1
   74     37     64    1
   75     38     65    1
   76     39     66    1
   77     40     67    1
   78     41     68    1
   79     43     69    1
   80     44     70    1
   81     45     71    1
   82     46     72    1
   83     47     73    1
#
#	File Created by: Spartan '14 Export
#

@<TRIPOS>MOLECULE
*****
77 87
SMALL
USER_CHARGES


@<TRIPOS>ATOM
    1   C1        -0.135485722    -3.738641595     0.263994625     C.2   1  *****   -0.186643
    2   C2        -1.474350313    -4.100965586     0.576413056     C.2   1  *****    0.508890
    3   C3        -2.443708554    -3.111203323     0.676244093     C.2   1  *****   -0.571562
    4   C4        -2.084625016    -1.783229848     0.403390856     C.2   1  *****    0.454729
    5   N5        -0.853391143    -1.434289517     0.077093352       N   1  *****   -0.602689
    6   C6         0.106496772    -2.371477018     0.042968185     C.2   1  *****    0.335981
    7   C7         2.225472873    -4.226071824    -0.018542266     C.2   1  *****   -0.130113
    8   C8         0.950736301    -4.660170808     0.205230483     C.2   1  *****   -0.133023
    9   C9         1.452446126    -1.910853895    -0.155557058     C.2   1  *****    0.306993
   10   C10        2.508002994    -2.838521754    -0.181337609     C.2   1  *****   -0.172275
   11   C11        3.814904902    -2.304042721    -0.351049487     C.2   1  *****    0.474960
   12   N12        1.623709672    -0.585552280    -0.260873747       N   1  *****   -0.456161
   13   C13        2.847409251    -0.108902045    -0.379570894     C.2   1  *****    0.224038
   14   C14        3.982663991    -0.930927795    -0.442934220     C.2   1  *****   -0.437504
   15   C15       -2.960494078    -0.574514144     0.653779593     C.2   1  *****    0.477036
   16   O16       -2.377972642     0.461414993     0.993804596       O   1  *****   -0.593220
   17   N17       -4.309794397    -0.684695421     0.618292085     N.3   1  *****   -0.252229
   18   C18       -5.000951569    -1.501631200    -0.377571929     C.3   1  *****   -0.629050
   19   C19        2.843330510     1.387559714    -0.546430671     C.2   1  *****    0.547664
   20   N20        3.873974288     2.139618280    -0.107068712     N.3   1  *****   -0.234869
   21   O21        1.872222850     1.897044383    -1.123311640       O   1  *****   -0.554084
   22   C22        3.784909983     3.585376541    -0.339929416     C.3   1  *****   -0.603150
   23   N23        0.527884025     2.781193845     1.366326570       N   1  *****    0.942779
   24   N24        0.207048173     0.647606824    -3.516655883       N   1  *****    0.868754
   25   N25       -3.123745293     1.180199793    -1.915930456       N   1  *****    0.882387
   26   Nd26      -0.457175465     1.013647712    -0.729902341      Nd   1  *****    1.907060
   27   O27       -2.449747935     0.090083935    -1.906002117       O   1  *****   -0.584382
   28   O28       -2.579502632     2.178890087    -1.363243517       O   1  *****   -0.517816
   29   O29       -4.241730618     1.226345851    -2.409449917       O   1  *****   -0.450487
   30   O30       -0.270272993     1.739729303    -3.058892924       O   1  *****   -0.570364
   31   O31        0.354213904    -0.291531359    -2.658738094       O   1  *****   -0.585815
   32   O32        0.507927748     0.506606556    -4.682666928       O   1  *****   -0.425695
   33   O33        0.706263557     1.516389603     1.454966717       O   1  *****   -0.640942
   34   O34       -0.280068442     3.166780607     0.463639655       O   1  *****   -0.562276
   35   O35        1.125802122     3.561312804     2.086745472       O   1  *****   -0.453525
   36   C36       -5.085728760     0.353084373     1.249900760     C.2   1  *****    0.514063
   37   C37       -5.571234012     1.439488966     0.528518142     C.2   1  *****   -0.318989
   38   C38       -5.360870779     0.222747547     2.608446309     C.2   1  *****   -0.312328
   39   C39       -6.126586651     1.186975394     3.253420275     C.2   1  *****   -0.072678
   40   C40       -6.619496067     2.274425393     2.539088952     C.2   1  *****   -0.160047
   41   C41       -6.339564190     2.397432397     1.181666654     C.2   1  *****   -0.058652
   42   C42        4.718994136     1.704179323     0.964321620     C.2   1  *****    0.506706
   43   C43        4.147295296     1.363934528     2.190036885     C.2   1  *****   -0.308580
   44   C44        6.101047654     1.666610853     0.787196035     C.2   1  *****   -0.298984
   45   C45        6.915498582     1.253625014     1.835782992     C.2   1  *****   -0.103036
   46   C46        6.350693447     0.885384873     3.055209781     C.2   1  *****   -0.147387
   47   C47        4.971396966     0.945112505     3.229844659     C.2   1  *****   -0.084507
   48   O48        4.811733499    -3.199080028    -0.394845764     O.3   1  *****   -0.223697
   49   C49        6.142303181    -2.726373414    -0.545102424     C.3   1  *****   -0.390193
   50   O50       -1.690714505    -5.405236341     0.791667941     O.3   1  *****   -0.225641
   51   C51       -3.004226905    -5.838811746     1.109781097     C.3   1  *****   -0.376962
   52   H52       -3.453997633    -3.341634841     0.983151674       H   1  *****    0.222377
   53   H53        3.048062180    -4.929568576    -0.056705758       H   1  *****    0.141686
   54   H54        0.745288381    -5.713176906     0.352976368       H   1  *****    0.139998
   55   H55        4.962119054    -0.490448337    -0.553739371       H   1  *****    0.152807
   56   H56       -5.837624619    -2.032716818     0.083603235       H   1  *****    0.193811
   57   H57       -4.309586827    -2.210624911    -0.827913652       H   1  *****    0.222531
   58   H58       -5.370156471    -0.854730615    -1.178879633       H   1  *****    0.231078
   59   H59        4.780342914     4.013827110    -0.224812705       H   1  *****    0.206074
   60   H60        3.099934685     4.042896344     0.381528634       H   1  *****    0.216244
   61   H61        3.408815411     3.763193022    -1.346039775       H   1  *****    0.243704
   62   H62       -5.328390891     1.551924208    -0.522897558       H   1  *****    0.182181
   63   H63       -4.968985295    -0.631105724     3.151808564       H   1  *****    0.142476
   64   H64       -6.336180601     1.087608477     4.313638109       H   1  *****    0.124065
   65   H65       -7.215482993     3.029227158     3.041992854       H   1  *****    0.129399
   66   H66       -6.708283365     3.251723015     0.623679954       H   1  *****    0.127636
   67   H67        3.071047825     1.446955712     2.317726813       H   1  *****    0.174246
   68   H68        6.526403123     1.951454870    -0.170305460       H   1  *****    0.150326
   69   H69        7.991957968     1.221805131     1.701033153       H   1  *****    0.131504
   70   H70        6.988591127     0.563896967     3.872185715       H   1  *****    0.132492
   71   H71        4.530589038     0.677598963     4.184565837       H   1  *****    0.139279
   72   H72        6.774082317    -3.613312572    -0.534310534       H   1  *****    0.197808
   73   H73        6.420249115    -2.063653187     0.281427393       H   1  *****    0.160811
   74   H74        6.265429532    -2.199776028    -1.497429375       H   1  *****    0.181002
   75   H75       -2.942877264    -6.921583707     1.207611985       H   1  *****    0.197508
   76   H76       -3.707193646    -5.581465746     0.310662341       H   1  *****    0.172069
   77   H77       -3.344146996    -5.404669666     2.055959770       H   1  *****    0.164405


@<TRIPOS>BOND
    1      1      2    2
    2      2      3    1
    3      3      4    2
    4      4      5    1
    5      5      6    2
    6      6      9    1
    7      1      6    1
    8      7      8    2
    9      7     10    1
   10      9     12    2
   11     10      9    1
   12     11     10    2
   13     11     14    1
   14     12     13    1
   15     13     14    2
   16      8      1    1
   17      4     15    1
   18     15     16    2
   19     15     17    1
   20     17     18    1
   21     13     19    1
   22     19     20    1
   23     19     21    2
   24     20     22    1
   25      5     26    1
   26     12     26    1
   27     16     26    1
   28     21     26    1
   29     25     27    2
   30     25     28    2
   31     25     29    1
   32     24     30    2
   33     24     31    2
   34     24     32    1
   35     23     33    2
   36     23     34    2
   37     23     35    1
   38     28     26    1
   39     27     26    1
   40     30     26    1
   41     31     26    1
   42     34     26    1
   43     33     26    1
   44     37     36    2
   45     36     38    1
   46     37     41    1
   47     38     39    2
   48     39     40    1
   49     40     41    2
   50     17     36    1
   51     43     42    2
   52     42     44    1
   53     43     47    1
   54     44     45    2
   55     45     46    1
   56     46     47    2
   57     20     42    1
   58     48     49    1
   59     11     48    1
   60     50     51    1
   61      2     50    1
   62      3     52    1
   63      7     53    1
   64      8     54    1
   65     14     55    1
   66     18     56    1
   67     18     57    1
   68     18     58    1
   69     22     59    1
   70     22     60    1
   71     22     61    1
   72     37     62    1
   73     38     63    1
   74     39     64    1
   75     40     65    1
   76     41     66    1
   77     43     67    1
   78     44     68    1
   79     45     69    1
   80     46     70    1
   81     47     71    1
   82     49     72    1
   83     49     73    1
   84     49     74    1
   85     51     75    1
   86     51     76    1
   87     51     77    1
#
#	File Created by: Spartan '14 Export
#

@<TRIPOS>MOLECULE
*****
71 81
SMALL
USER_CHARGES


@<TRIPOS>ATOM
    1   C1        -0.016249141    -3.786590026     0.395705217     C.2   1  *****   -0.021267
    2   C2        -1.342347300    -4.158339540     0.735140119     C.2   1  *****    0.174026
    3   C3        -2.337916487    -3.192314258     0.806924685     C.2   1  *****   -0.434957
    4   C4        -2.020807103    -1.863224460     0.490720015     C.2   1  *****    0.492678
    5   N5        -0.792192430    -1.511675453     0.147725390       N   1  *****   -0.548659
    6   C6         0.190118237    -2.416578200     0.130303221     C.2   1  *****    0.307751
    7   C7         2.355155295    -4.220469296     0.093516589     C.2   1  *****   -0.190183
    8   C8         1.096265778    -4.679904974     0.344701019     C.2   1  *****   -0.178601
    9   C9         1.524876558    -1.927038245    -0.096204054     C.2   1  *****    0.248950
   10   C10        2.606134638    -2.829496633    -0.108676234     C.2   1  *****    0.027242
   11   C11        3.890663028    -2.256903370    -0.305842567     C.2   1  *****    0.107952
   12   N12        1.664684641    -0.606488643    -0.242063089       N   1  *****   -0.428186
   13   C13        2.868203376    -0.083771775    -0.385072086     C.2   1  *****    0.265425
   14   C14        4.022242794    -0.882711349    -0.434481154     C.2   1  *****   -0.286091
   15   C15       -2.909571833    -0.655003139     0.707054147     C.2   1  *****    0.391036
   16   O16       -2.324141211     0.400712073     0.979950682       O   1  *****   -0.585579
   17   N17       -4.251067748    -0.778091816     0.710651519     N.3   1  *****   -0.160354
   18   C18       -4.972309681    -1.740000495    -0.118844217     C.3   1  *****   -0.669869
   19   C19        2.812647783     1.405199734    -0.612428543     C.2   1  *****    0.502180
   20   N20        3.818659269     2.200165635    -0.206473897     N.3   1  *****   -0.220122
   21   O21        1.822388286     1.850899735    -1.209362114       O   1  *****   -0.545379
   22   C22        3.697175792     3.632082960    -0.502020694     C.3   1  *****   -0.559304
   23   N23        0.464481329     2.786921302     1.249089986       N   1  *****    0.937448
   24   N24        0.220664919     0.414178078    -3.525829587       N   1  *****    0.856371
   25   N25       -3.157252122     0.864194270    -1.951996866       N   1  *****    0.894180
   26   Nd26      -0.489795816     0.947358734    -0.782411652      Nd   1  *****    1.908622
   27   O27       -2.413568442    -0.179324252    -1.877585877       O   1  *****   -0.592489
   28   O28       -2.664965590     1.931691355    -1.480711416       O   1  *****   -0.526585
   29   O29       -4.281690231     0.805777560    -2.420792961       O   1  *****   -0.439214
   30   O30       -0.304590789     1.514569055    -3.146158997       O   1  *****   -0.567255
   31   O31        0.399850140    -0.457135558    -2.601095256       O   1  *****   -0.583054
   32   O32        0.535946117     0.203955943    -4.675181522       O   1  *****   -0.406919
   33   O33        0.671360996     1.527643463     1.368296706       O   1  *****   -0.638114
   34   O34       -0.353355058     3.130926734     0.336679638       O   1  *****   -0.561664
   35   O35        1.044164639     3.596814424     1.947811947       O   1  *****   -0.440287
   36   C36       -5.028593290     0.282679086     1.304664030     C.2   1  *****    0.466930
   37   C37       -5.534534692     1.322265131     0.530744773     C.2   1  *****   -0.304022
   38   C38       -5.279058285     0.222392446     2.672345044     C.2   1  *****   -0.297242
   39   C39       -6.043976590     1.214620420     3.274915664     C.2   1  *****   -0.069270
   40   C40       -6.555871559     2.257739084     2.509821238     C.2   1  *****   -0.156706
   41   C41       -6.299111659     2.309345435     1.143186441     C.2   1  *****   -0.061527
   42   C42        4.690218363     1.820790689     0.866362107     C.2   1  *****    0.436058
   43   C43        4.141633812     1.508318863     2.110160666     C.2   1  *****   -0.266503
   44   C44        6.070305848     1.815074906     0.670775526     C.2   1  *****   -0.268638
   45   C45        6.907567414     1.464652478     1.723445716     C.2   1  *****   -0.106069
   46   C46        6.367919061     1.126736672     2.962789970     C.2   1  *****   -0.130321
   47   C47        4.990000801     1.152183132     3.154021536     C.2   1  *****   -0.112780
   48   C48        5.044866246    -3.094515976    -0.353359899     C.1   1  *****    0.261459
   49   N49        5.972562483    -3.791499841    -0.384116510     N.1   1  *****   -0.349756
   50   C50       -1.645348569    -5.518026201     1.044397173     C.1   1  *****    0.240712
   51   N51       -1.878297043    -6.627136875     1.295248575     N.1   1  *****   -0.338467
   52   H52       -3.335184585    -3.469447939     1.121954036       H   1  *****    0.229580
   53   H53        3.191594756    -4.910486133     0.064907195       H   1  *****    0.181907
   54   H54        0.925967344    -5.736347454     0.522002198       H   1  *****    0.179812
   55   H55        5.000072649    -0.439874025    -0.566421693       H   1  *****    0.163397
   56   H56       -5.598379424    -2.397755080     0.491528804       H   1  *****    0.204416
   57   H57       -4.274264692    -2.323004807    -0.716502007       H   1  *****    0.230987
   58   H58       -5.607128960    -1.186878345    -0.815038607       H   1  *****    0.245517
   59   H59        4.683856154     4.085715117    -0.413216294       H   1  *****    0.202411
   60   H60        3.008449892     4.105053526     0.205597774       H   1  *****    0.209711
   61   H61        3.310944549     3.759045829    -1.512109088       H   1  *****    0.233588
   62   H62       -5.313307902     1.373634166    -0.529999148       H   1  *****    0.174757
   63   H63       -4.871271198    -0.596492155     3.256218635       H   1  *****    0.143987
   64   H64       -6.237365335     1.171719817     4.341746830       H   1  *****    0.126500
   65   H65       -7.150292228     3.034273867     2.980203935       H   1  *****    0.132335
   66   H66       -6.684680664     3.128748794     0.545895190       H   1  *****    0.131287
   67   H67        3.065659432     1.570344640     2.249989882       H   1  *****    0.162188
   68   H68        6.477117108     2.073381952    -0.302078598       H   1  *****    0.151977
   69   H69        7.982074077     1.450990668     1.574245221       H   1  *****    0.139554
   70   H70        7.024712019     0.851553709     3.781370827       H   1  *****    0.136546
   71   H71        4.569237911     0.907656306     4.123722882       H   1  *****    0.145960


@<TRIPOS>BOND
    1      1      2    2
    2      2      3    1
    3      3      4    2
    4      4      5    1
    5      5      6    2
    6      6      9    1
    7      1      6    1
    8      7      8    2
    9      7     10    1
   10      9     12    2
   11     10      9    1
   12     11     10    2
   13     11     14    1
   14     12     13    1
   15     13     14    2
   16      8      1    1
   17      4     15    1
   18     15     16    2
   19     15     17    1
   20     17     18    1
   21     13     19    1
   22     19     20    1
   23     19     21    2
   24     20     22    1
   25      5     26    1
   26     12     26    1
   27     16     26    1
   28     21     26    1
   29     25     27    2
   30     25     28    2
   31     25     29    1
   32     24     30    2
   33     24     31    2
   34     24     32    1
   35     23     33    2
   36     23     34    2
   37     23     35    1
   38     28     26    1
   39     27     26    1
   40     30     26    1
   41     31     26    1
   42     34     26    1
   43     33     26    1
   44     37     36    2
   45     36     38    1
   46     37     41    1
   47     38     39    2
   48     39     40    1
   49     40     41    2
   50     17     36    1
   51     43     42    2
   52     42     44    1
   53     43     47    1
   54     44     45    2
   55     45     46    1
   56     46     47    2
   57     20     42    1
   58     48     49    3
   59     11     48    1
   60     50     51    3
   61      2     50    1
   62      3     52    1
   63      7     53    1
   64      8     54    1
   65     14     55    1
   66     18     56    1
   67     18     57    1
   68     18     58    1
   69     22     59    1
   70     22     60    1
   71     22     61    1
   72     37     62    1
   73     38     63    1
   74     39     64    1
   75     40     65    1
   76     41     66    1
   77     43     67    1
   78     44     68    1
   79     45     69    1
   80     46     70    1
   81     47     71    1
#
#	File Created by: Spartan '14 Export
#

@<TRIPOS>MOLECULE
*****
79 89
SMALL
USER_CHARGES


@<TRIPOS>ATOM
    1   C1         0.009137520    -3.589190079     0.321209913     C.2   1  *****    0.135159
    2   C2        -1.321785649    -4.084764477     0.398057682     C.2   1  *****   -0.079604
    3   C3        -2.368355956    -3.175370170     0.394725322     C.2   1  *****   -0.288989
    4   C4        -2.108943125    -1.801756177     0.317325297     C.2   1  *****    0.421532
    5   N5        -0.880298510    -1.341728755     0.156305685       N   1  *****   -0.539825
    6   C6         0.154028273    -2.189712567     0.161599400     C.2   1  *****    0.193933
    7   C7         2.433388706    -3.831387746     0.183698917     C.2   1  *****   -0.197473
    8   C8         1.196486532    -4.383239024     0.338434665     C.2   1  *****   -0.246840
    9   C9         1.464180664    -1.607689962    -0.024501005     C.2   1  *****    0.329506
   10   C10        2.617303738    -2.427891285    -0.015882316     C.2   1  *****    0.055917
   11   C11        3.864500276    -1.779626227    -0.248853511     C.2   1  *****   -0.033435
   12   N12        1.504801886    -0.282408389    -0.219324063       N   1  *****   -0.567461
   13   C13        2.667230043     0.312609182    -0.414386496     C.2   1  *****    0.231267
   14   C14        3.866062385    -0.409869441    -0.451227170     C.2   1  *****   -0.199900
   15   C15       -3.132799610    -0.697406144     0.270331350     C.2   1  *****    0.352569
   16   O16       -2.878103458     0.266287047    -0.469402360       O   1  *****   -0.562991
   17   N17       -4.257057548    -0.739005227     1.007748499     N.3   1  *****   -0.093351
   18   C18       -4.526729425    -1.703965106     2.069235435     C.3   1  *****   -0.592311
   19   C19        2.533619012     1.779374313    -0.717964366     C.2   1  *****    0.535645
   20   N20        3.525982738     2.637232087    -0.409870898     N.3   1  *****   -0.181595
   21   O21        1.503962942     2.162946054    -1.295518403       O   1  *****   -0.566365
   22   C22        3.344797426     4.030859589    -0.823635568     C.3   1  *****   -0.599207
   23   N23       -0.167004738     1.603066440     2.221467923       N   1  *****    0.918484
   24   N24        0.062717337    -1.307764983    -2.804738650       N   1  *****    0.972920
   25   N25       -2.096627408     3.550640740    -1.356684509       N   1  *****    0.871627
   26   Nd26      -0.650409385     1.172934060    -0.665868725      Nd   1  *****    1.954654
   27   O27       -1.577957664     2.773665685    -2.234802169       O   1  *****   -0.560890
   28   O28       -1.872088844     3.222553951    -0.136866398       O   1  *****   -0.606479
   29   O29       -2.749815875     4.522829459    -1.655129609       O   1  *****   -0.406612
   30   O30        1.267374920    -1.370798285    -3.061687850       O   1  *****   -0.506157
   31   O31       -0.452100153    -0.140593703    -2.544672110       O   1  *****   -0.681646
   32   O32       -0.679612427    -2.291991177    -2.764054460       O   1  *****   -0.515347
   33   O33       -1.216959600     1.024362020     1.790889265       O   1  *****   -0.588798
   34   O34        0.628557164     2.037614083     1.317347736       O   1  *****   -0.609613
   35   O35        0.077138117     1.724690750     3.404532137       O   1  *****   -0.439220
   36   C36       -5.190645745     0.354229671     0.896939644     C.2   1  *****    0.461960
   37   C37       -6.502979938     0.078992484     0.527393510     C.2   1  *****   -0.367492
   38   C38       -4.784953874     1.654033216     1.189301093     C.2   1  *****   -0.330006
   39   C39       -5.709492836     2.686729659     1.093112831     C.2   1  *****   -0.020076
   40   C40       -7.026306402     2.422708934     0.726091759     C.2   1  *****   -0.188796
   41   C41       -7.423097453     1.119090804     0.446784912     C.2   1  *****   -0.028161
   42   C42        4.451341180     2.381305251     0.653629126     C.2   1  *****    0.443272
   43   C43        3.970418360     2.091605833     1.930842847     C.2   1  *****   -0.275454
   44   C44        5.821654163     2.473287235     0.411262286     C.2   1  *****   -0.254462
   45   C45        6.718015873     2.248630647     1.449844284     C.2   1  *****   -0.116773
   46   C46        6.246948757     1.934931650     2.723361826     C.2   1  *****   -0.124181
   47   C47        4.878020977     1.859403976     2.960022540     C.2   1  *****   -0.120138
   48   C48        5.176890415    -2.515897478    -0.278995360     C.2   1  *****    0.631916
   49   C49        6.383906184    -1.805859883    -0.847575726     C.3   1  *****   -0.706951
   50   O50        5.278295196    -3.650346710     0.148270724     O.2   1  *****   -0.444704
   51   C51       -1.633305158    -5.554746274     0.477923096     C.2   1  *****    0.679845
   52   C52       -2.990945529    -6.020055957     0.004426328     C.3   1  *****   -0.707010
   53   O53       -0.819826855    -6.348948705     0.908751131     O.2   1  *****   -0.463550
   54   H54       -3.391493290    -3.524351700     0.430732555       H   1  *****    0.169320
   55   H55        3.310555624    -4.460089327     0.208162635       H   1  *****    0.190809
   56   H56        1.097495636    -5.448442783     0.486376118       H   1  *****    0.201910
   57   H57        4.790061419     0.116295376    -0.641155013       H   1  *****    0.101322
   58   H58       -3.611586514    -2.210040457     2.370982509       H   1  *****    0.199077
   59   H59       -5.270461589    -2.447051627     1.762760703       H   1  *****    0.189373
   60   H60       -4.917305380    -1.160161351     2.930810034       H   1  *****    0.210058
   61   H61        4.314133102     4.527913921    -0.797034925       H   1  *****    0.200075
   62   H62        2.652965856     4.542696030    -0.147382162       H   1  *****    0.221585
   63   H63        2.933549208     4.057914166    -1.831593013       H   1  *****    0.244344
   64   H64       -6.798236450    -0.937753989     0.287972230       H   1  *****    0.168359
   65   H65       -3.756906634     1.855811830     1.465519206       H   1  *****    0.205881
   66   H66       -5.390027188     3.702716803     1.297926808       H   1  *****    0.126564
   67   H67       -7.741878917     3.234969647     0.651027187       H   1  *****    0.137512
   68   H68       -8.446587697     0.908930465     0.154097791       H   1  *****    0.118966
   69   H69        2.898489021     2.065799006     2.108679568       H   1  *****    0.167020
   70   H70        6.176072972     2.710837197    -0.587160475       H   1  *****    0.141846
   71   H71        7.784880450     2.317804119     1.263940975       H   1  *****    0.135568
   72   H72        6.948688775     1.758370169     3.531859634       H   1  *****    0.134305
   73   H73        4.507580535     1.631498554     3.953970961       H   1  *****    0.150789
   74   H74        7.209727717    -2.515907171    -0.877246619       H   1  *****    0.207758
   75   H75        6.187485492    -1.427361287    -1.855416876       H   1  *****    0.209682
   76   H76        6.673669522    -0.953788347    -0.223086136       H   1  *****    0.186977
   77   H77       -2.980491120    -7.108764048    -0.041517212       H   1  *****    0.208974
   78   H78       -3.778183641    -5.713464080     0.702311530       H   1  *****    0.184009
   79   H79       -3.237179019    -5.606484923    -0.977757559       H   1  *****    0.209570


@<TRIPOS>BOND
    1      1      2    2
    2      2      3    1
    3      3      4    2
    4      4      5    1
    5      5      6    2
    6      6      9    1
    7      1      6    1
    8      7      8    2
    9      7     10    1
   10      9     12    2
   11     10      9    1
   12     11     10    2
   13     11     14    1
   14     12     13    1
   15     13     14    2
   16      8      1    1
   17      4     15    1
   18     15     16    2
   19     15     17    1
   20     17     18    1
   21     13     19    1
   22     19     20    1
   23     19     21    2
   24     20     22    1
   25      5     26    1
   26     12     26    1
   27     16     26    1
   28     21     26    1
   29     25     27    2
   30     25     28    2
   31     25     29    1
   32     24     30    2
   33     24     31    2
   34     24     32    1
   35     23     33    2
   36     23     34    2
   37     23     35    1
   38     28     26    1
   39     27     26    1
   40     30     26    1
   41     31     26    1
   42     34     26    1
   43     33     26    1
   44     37     36    2
   45     36     38    1
   46     37     41    1
   47     38     39    2
   48     39     40    1
   49     40     41    2
   50     17     36    1
   51     43     42    2
   52     42     44    1
   53     43     47    1
   54     44     45    2
   55     45     46    1
   56     46     47    2
   57     20     42    1
   58     48     49    1
   59     48     50    2
   60     11     48    1
   61     51     52    1
   62     51     53    2
   63      2     51    1
   64      3     54    1
   65      7     55    1
   66      8     56    1
   67     14     57    1
   68     18     58    1
   69     18     59    1
   70     18     60    1
   71     22     61    1
   72     22     62    1
   73     22     63    1
   74     37     64    1
   75     38     65    1
   76     39     66    1
   77     40     67    1
   78     41     68    1
   79     43     69    1
   80     44     70    1
   81     45     71    1
   82     46     72    1
   83     47     73    1
   84     49     74    1
   85     49     75    1
   86     49     76    1
   87     52     77    1
   88     52     78    1
   89     52     79    1
#
#	File Created by: Spartan '14 Export
#

@<TRIPOS>MOLECULE
*****
85 95
SMALL
USER_CHARGES


@<TRIPOS>ATOM
    1   C1        -0.017231918    -3.553308965     0.222187932     C.2   1  *****   -0.157971
    2   C2        -1.334762254    -3.992642058     0.575551173     C.2   1  *****    0.355725
    3   C3        -2.353979501    -3.036422366     0.581843141     C.2   1  *****   -0.476128
    4   C4        -2.067413981    -1.701800909     0.293037552     C.2   1  *****    0.433430
    5   N5        -0.845117450    -1.283718007     0.006863504       N   1  *****   -0.608453
    6   C6         0.157499843    -2.173796606    -0.010674642     C.2   1  *****    0.336392
    7   C7         2.362364227    -3.895549113    -0.200747220     C.2   1  *****   -0.183961
    8   C8         1.123267104    -4.399238715     0.074971319     C.2   1  *****   -0.144639
    9   C9         1.477439432    -1.636112717    -0.225822848     C.2   1  *****    0.327414
   10   C10        2.586033721    -2.495071386    -0.352881684     C.2   1  *****   -0.156782
   11   C11        3.864926382    -1.884866613    -0.570064244     C.2   1  *****    0.384175
   12   N12        1.567311095    -0.299040668    -0.240538030       N   1  *****   -0.472937
   13   C13        2.764591959     0.250843527    -0.319183485     C.2   1  *****    0.179410
   14   C14        3.934082683    -0.495703921    -0.484535008     C.2   1  *****   -0.369993
   15   C15       -3.012605576    -0.546431094     0.532627773     C.2   1  *****    0.461782
   16   O16       -2.497028884     0.511488897     0.913512930       O   1  *****   -0.586248
   17   N17       -4.351928792    -0.721187501     0.446980519     N.3   1  *****   -0.255030
   18   C18       -4.968575905    -1.567880750    -0.572015955     C.3   1  *****   -0.601815
   19   C19        2.687158078     1.751442251    -0.384468530     C.2   1  *****    0.574495
   20   N20        3.668634008     2.514199473     0.140391661     N.3   1  *****   -0.243300
   21   O21        1.711889047     2.253230613    -0.961001873       O   1  *****   -0.557820
   22   C22        3.527205953     3.967492985     0.005395005     C.3   1  *****   -0.597248
   23   N23        0.219814591     2.940038268     1.490405351       N   1  *****    0.943414
   24   N24        0.221633523     1.016428843    -3.487710606       N   1  *****    0.865181
   25   N25       -3.195620926     1.230305870    -2.005905545       N   1  *****    0.887313
   26   Nd26      -0.570006274     1.204714667    -0.711629033      Nd   1  *****    1.911543
   27   O27       -2.445355158     0.191020682    -1.996473540       O   1  *****   -0.584449
   28   O28       -2.749532336     2.248046154    -1.404490977       O   1  *****   -0.519201
   29   O29       -4.293576620     1.209836786    -2.545735818       O   1  *****   -0.455384
   30   O30       -0.346071588     2.050517221    -3.000646066       O   1  *****   -0.570713
   31   O31        0.407069582     0.051054214    -2.667654836       O   1  *****   -0.584387
   32   O32        0.569361807     0.950101477    -4.648128610       O   1  *****   -0.429696
   33   O33        0.472234327     1.686121475     1.539089757       O   1  *****   -0.637840
   34   O34       -0.572966078     3.312661746     0.568687583       O   1  *****   -0.563370
   35   O35        0.737272551     3.725385241     2.265613747       O   1  *****   -0.457442
   36   C36       -5.200814681     0.265794987     1.065882622     C.2   1  *****    0.497580
   37   C37       -5.728502574     1.330478829     0.341385618     C.2   1  *****   -0.315812
   38   C38       -5.503872835     0.106332280     2.415470009     C.2   1  *****   -0.298980
   39   C39       -6.339561332     1.018758406     3.048421848     C.2   1  *****   -0.073948
   40   C40       -6.874866121     2.083891282     2.330728260     C.2   1  *****   -0.167302
   41   C41       -6.566838257     2.236453594     0.982457595     C.2   1  *****   -0.056134
   42   C42        4.491142522     2.035426410     1.211184110     C.2   1  *****    0.463322
   43   C43        3.888426379     1.597091549     2.390228879     C.2   1  *****   -0.281118
   44   C44        5.878783064     2.055057856     1.084574126     C.2   1  *****   -0.276250
   45   C45        6.669575425     1.603134749     2.135134988     C.2   1  *****   -0.099397
   46   C46        6.075164478     1.138964133     3.306734904     C.2   1  *****   -0.146072
   47   C47        4.689198172     1.140397320     3.432176695     C.2   1  *****   -0.102185
   48   N48        4.990349095    -2.660705989    -0.797971103     N.3   1  *****   -0.079015
   49   C49        6.289740705    -2.052451955    -0.593770984     C.3   1  *****   -0.598294
   50   C50        4.985784711    -3.584706098    -1.928388547     C.3   1  *****   -0.384893
   51   N51       -1.591217032    -5.314587719     0.887339953     N.3   1  *****   -0.031731
   52   C52       -0.808217435    -5.990139743     1.915490352     C.3   1  *****   -0.440323
   53   C53       -2.957567322    -5.791191413     0.823199024     C.3   1  *****   -0.599009
   54   H54       -3.352733140    -3.306359776     0.895594763       H   1  *****    0.210637
   55   H55        3.203693478    -4.573752849    -0.263189913       H   1  *****    0.141130
   56   H56        1.001681152    -5.470850139     0.166015859       H   1  *****    0.141836
   57   H57        4.876761575     0.017791376    -0.604947653       H   1  *****    0.151220
   58   H58       -5.799750282    -2.131562178    -0.141029167       H   1  *****    0.187657
   59   H59       -4.231575810    -2.250314788    -0.990646816       H   1  *****    0.208816
   60   H60       -5.332461661    -0.938413637    -1.389621225       H   1  *****    0.225611
   61   H61        4.501619929     4.425050580     0.176508469       H   1  *****    0.206795
   62   H62        2.807223695     4.348532611     0.737277047       H   1  *****    0.216969
   63   H63        3.169104555     4.200207373    -0.996196473       H   1  *****    0.239925
   64   H64       -5.464776193     1.467933419    -0.702038141       H   1  *****    0.184204
   65   H65       -5.078670179    -0.729735354     2.961429890       H   1  *****    0.138497
   66   H66       -6.570746441     0.896539479     4.101760105       H   1  *****    0.123548
   67   H67       -7.526136286     2.798370760     2.823973387       H   1  *****    0.130995
   68   H68       -6.968399398     3.074525276     0.422492810       H   1  *****    0.126697
   69   H69        2.805576662     1.633209399     2.480471411       H   1  *****    0.173333
   70   H70        6.327628218     2.414686295     0.163685551       H   1  *****    0.146074
   71   H71        7.750560336     1.614415263     2.038847420       H   1  *****    0.127744
   72   H72        6.694538950     0.786709513     4.125343394       H   1  *****    0.131627
   73   H73        4.224446647     0.795833498     4.350182156       H   1  *****    0.140964
   74   H74        7.038398188    -2.847114892    -0.534287611       H   1  *****    0.219631
   75   H75        6.304580754    -1.496719615     0.345736516       H   1  *****    0.189260
   76   H76        6.581188318    -1.375758412    -1.413135664       H   1  *****    0.195524
   77   H77        5.584158246    -4.470996968    -1.694529600       H   1  *****    0.149300
   78   H78        3.972789149    -3.897101562    -2.173647744       H   1  *****    0.166546
   79   H79        5.412096615    -3.105825877    -2.822319900       H   1  *****    0.157705
   80   H80       -0.542520986    -7.005160356     1.600956732       H   1  *****    0.161100
   81   H81        0.102721236    -5.437901772     2.135515006       H   1  *****    0.165407
   82   H82       -1.388356585    -6.061495336     2.846579661       H   1  *****    0.174490
   83   H83       -2.942500146    -6.883675051     0.784630279       H   1  *****    0.221234
   84   H84       -3.442044215    -5.425812711    -0.083942805       H   1  *****    0.203555
   85   H85       -3.560540202    -5.493675349     1.695940457       H   1  *****    0.186067


@<TRIPOS>BOND
    1      1      2    2
    2      2      3    1
    3      3      4    2
    4      4      5    1
    5      5      6    2
    6      6      9    1
    7      1      6    1
    8      7      8    2
    9      7     10    1
   10      9     12    2
   11     10      9    1
   12     11     10    2
   13     11     14    1
   14     12     13    1
   15     13     14    2
   16      8      1    1
   17      4     15    1
   18     15     16    2
   19     15     17    1
   20     17     18    1
   21     13     19    1
   22     19     20    1
   23     19     21    2
   24     20     22    1
   25      5     26    1
   26     12     26    1
   27     16     26    1
   28     21     26    1
   29     25     27    2
   30     25     28    2
   31     25     29    1
   32     24     30    2
   33     24     31    2
   34     24     32    1
   35     23     33    2
   36     23     34    2
   37     23     35    1
   38     28     26    1
   39     27     26    1
   40     30     26    1
   41     31     26    1
   42     34     26    1
   43     33     26    1
   44     37     36    2
   45     36     38    1
   46     37     41    1
   47     38     39    2
   48     39     40    1
   49     40     41    2
   50     17     36    1
   51     43     42    2
   52     42     44    1
   53     43     47    1
   54     44     45    2
   55     45     46    1
   56     46     47    2
   57     20     42    1
   58     48     49    1
   59     48     50    1
   60     11     48    1
   61     51     52    1
   62     51     53    1
   63      2     51    1
   64      3     54    1
   65      7     55    1
   66      8     56    1
   67     14     57    1
   68     18     58    1
   69     18     59    1
   70     18     60    1
   71     22     61    1
   72     22     62    1
   73     22     63    1
   74     37     64    1
   75     38     65    1
   76     39     66    1
   77     40     67    1
   78     41     68    1
   79     43     69    1
   80     44     70    1
   81     45     71    1
   82     46     72    1
   83     47     73    1
   84     49     74    1
   85     49     75    1
   86     49     76    1
   87     50     77    1
   88     50     78    1
   89     50     79    1
   90     52     80    1
   91     52     81    1
   92     52     82    1
   93     53     83    1
   94     53     84    1
   95     53     85    1
#
#	File Created by: Spartan '14 Export
#

@<TRIPOS>MOLECULE
*****
61 69
SMALL
USER_CHARGES


@<TRIPOS>ATOM
    1   C1        -0.703189144    -3.669858217     0.343125054     C.2   1  *****   -0.154684
    2   C2        -2.070398358    -3.849564818     0.677635492     C.2   1  *****    0.481009
    3   C3        -2.836466651    -2.719194965     0.908346241     C.2   1  *****   -0.519689
    4   C4        -2.278745753    -1.439925049     0.755831730     C.2   1  *****    0.426670
    5   N5        -1.007115288    -1.273508681     0.436933837       N   1  *****   -0.568928
    6   C6        -0.223029278    -2.345654885     0.269350833     C.2   1  *****    0.350005
    7   C7         1.539128701    -4.494079549    -0.145595649     C.2   1  *****   -0.165561
    8   C8         0.220716304    -4.735012038     0.105295192     C.2   1  *****   -0.148251
    9   C9         1.179910035    -2.094098565     0.066125839     C.2   1  *****    0.257622
   10   C10        2.069735564    -3.166555848    -0.152475653     C.2   1  *****   -0.093085
   11   C11        3.437953897    -2.848209760    -0.358143008     C.2   1  *****    0.409030
   12   N12        1.569701352    -0.816317645     0.126982324       N   1  *****   -0.475762
   13   C13        2.850065689    -0.528090848    -0.008024863     C.2   1  *****    0.358308
   14   C14        3.811119763    -1.518021487    -0.272635585     C.2   1  *****   -0.441840
   15   C15       -2.941246219    -0.123721279     1.089927036     C.2   1  *****    0.400930
   16   O16       -2.191079359     0.776990744     1.499444005       O   1  *****   -0.579880
   17   N17       -4.275580657     0.021627702     1.020429602     N.3   1  *****    0.088447
   18   C18       -4.843187793     1.268321651     1.523531801     C.3   1  *****   -0.597616
   19   C19        3.088237723     0.957992660     0.015502006     C.2   1  *****    0.348118
   20   N20        4.197811261     1.485638463     0.554554926     N.3   1  *****    0.180811
   21   O21        2.214694085     1.671758827    -0.503394012       O   1  *****   -0.530320
   22   C22        5.048759563     0.809689826     1.518307958     C.3   1  *****   -0.622051
   23   N23        0.993418116     2.620977949     2.024134687       N   1  *****    0.919161
   24   N24        0.364260931     0.885855772    -2.985812007       N   1  *****    0.857551
   25   N25       -2.862259623     1.862423279    -1.222370422       N   1  *****    0.896422
   26   Nd26      -0.227479581     1.179752923    -0.171149019      Nd   1  *****    1.903758
   27   O27       -2.356255966     0.694027689    -1.378708682       O   1  *****   -0.593135
   28   O28       -2.122275673     2.716528255    -0.653226076       O   1  *****   -0.525029
   29   O29       -4.005105138     2.112319812    -1.574077941       O   1  *****   -0.455599
   30   O30        0.093504863     2.012926700    -2.454606252       O   1  *****   -0.566222
   31   O31        0.348031633    -0.118689411    -2.189148736       O   1  *****   -0.581302
   32   O32        0.627208056     0.765138233    -4.163321939       O   1  *****   -0.422670
   33   O33        0.958701951     1.342357150     2.021475333       O   1  *****   -0.622782
   34   O34        0.293709238     3.199934282     1.131421543       O   1  *****   -0.560434
   35   O35        1.678596610     3.241062307     2.817926528       O   1  *****   -0.453679
   36   C36       -5.099532487    -0.665521273     0.035690593     C.3   1  *****   -0.610431
   37   C37        4.334000263     2.938542904     0.514383457     C.3   1  *****   -0.683726
   38   C38        4.448640875    -3.911704523    -0.663712495     C.3   1  *****   -0.707667
   39   C39       -2.666929887    -5.218315943     0.806377606     C.3   1  *****   -0.747429
   40   H40       -3.868115855    -2.828092592     1.221558783       H   1  *****    0.203373
   41   H41        2.207654100    -5.328125825    -0.325472528       H   1  *****    0.153382
   42   H42       -0.138845808    -5.757443083     0.126035620       H   1  *****    0.150267
   43   H43        4.846027077    -1.238591252    -0.436146793       H   1  *****    0.191974
   44   H44       -5.861898628     1.069133925     1.865637194       H   1  *****    0.203832
   45   H45       -4.235412934     1.632012013     2.349137959       H   1  *****    0.230033
   46   H46       -4.866501437     2.026531963     0.734561023       H   1  *****    0.216960
   47   H47        6.091100957     0.810087660     1.183132857       H   1  *****    0.192635
   48   H48        4.721822503    -0.215123558     1.678184578       H   1  *****    0.189752
   49   H49        4.988434682     1.336023468     2.476493390       H   1  *****    0.234642
   50   H50       -5.995019733    -1.083574847     0.506124923       H   1  *****    0.191855
   51   H51       -4.540440230    -1.455625751    -0.459465971       H   1  *****    0.197022
   52   H52       -5.390836119     0.056526999    -0.734297802       H   1  *****    0.237963
   53   H53        5.394163472     3.190406769     0.585491482       H   1  *****    0.227988
   54   H54        3.923370211     3.315998421    -0.419927043       H   1  *****    0.241361
   55   H55        3.788297832     3.394032588     1.348287475       H   1  *****    0.237452
   56   H56        4.499487354    -4.660168135     0.134521886       H   1  *****    0.195278
   57   H57        5.445143523    -3.482623043    -0.784901764       H   1  *****    0.204765
   58   H58        4.197038132    -4.441698959    -1.588496638       H   1  *****    0.212336
   59   H59       -2.134056516    -5.820577075     1.549675450       H   1  *****    0.206007
   60   H60       -3.714798106    -5.162859897     1.106769330       H   1  *****    0.215894
   61   H61       -2.619019100    -5.761023564    -0.144083883       H   1  *****    0.215158


@<TRIPOS>BOND
    1      1      2    2
    2      2      3    1
    3      3      4    2
    4      4      5    1
    5      5      6    2
    6      6      9    1
    7      1      6    1
    8      7      8    2
    9      7     10    1
   10      9     12    2
   11     10      9    1
   12     11     10    2
   13     11     14    1
   14     12     13    1
   15     13     14    2
   16      8      1    1
   17      4     15    1
   18     15     16    2
   19     15     17    1
   20     17     18    1
   21     13     19    1
   22     19     20    1
   23     19     21    2
   24     20     22    1
   25      5     26    1
   26     12     26    1
   27     16     26    1
   28     21     26    1
   29     25     27    2
   30     25     28    2
   31     25     29    1
   32     24     30    2
   33     24     31    2
   34     24     32    1
   35     23     33    2
   36     23     34    2
   37     23     35    1
   38     28     26    1
   39     27     26    1
   40     30     26    1
   41     31     26    1
   42     34     26    1
   43     33     26    1
   44     17     36    1
   45     20     37    1
   46     11     38    1
   47      2     39    1
   48      3     40    1
   49      7     41    1
   50      8     42    1
   51     14     43    1
   52     18     44    1
   53     18     45    1
   54     18     46    1
   55     22     47    1
   56     22     48    1
   57     22     49    1
   58     36     50    1
   59     36     51    1
   60     36     52    1
   61     37     53    1
   62     37     54    1
   63     37     55    1
   64     38     56    1
   65     38     57    1
   66     38     58    1
   67     39     59    1
   68     39     60    1
   69     39     61    1
#
#	File Created by: Spartan '14 Export
#

@<TRIPOS>MOLECULE
*****
55 63
SMALL
USER_CHARGES


@<TRIPOS>ATOM
    1   C1        -0.496398857    -3.511141726     0.273765908     C.2   1  *****   -0.043430
    2   C2        -1.855050456    -3.753498907     0.573820518     C.2   1  *****    0.202216
    3   C3        -2.724993158    -2.706410550     0.803095215     C.2   1  *****   -0.411658
    4   C4        -2.245618057    -1.393747029     0.675409041     C.2   1  *****    0.466435
    5   N5        -0.979866369    -1.140216655     0.389210532       N   1  *****   -0.545252
    6   C6        -0.118973417    -2.150420503     0.229456753     C.2   1  *****    0.339595
    7   C7         1.802794343    -4.175439985    -0.159108964     C.2   1  *****   -0.207163
    8   C8         0.499295632    -4.510093418     0.049106472     C.2   1  *****   -0.149323
    9   C9         1.269874026    -1.799084845     0.068683305     C.2   1  *****    0.182824
   10   C10        2.231925066    -2.813882023    -0.132217341     C.2   1  *****    0.069448
   11   C11        3.563799584    -2.367453892    -0.278877728     C.2   1  *****    0.124232
   12   N12        1.568997859    -0.500417593     0.153748632       N   1  *****   -0.445650
   13   C13        2.827922550    -0.115674983     0.058830946     C.2   1  *****    0.404304
   14   C14        3.870518715    -1.025282042    -0.180424265     C.2   1  *****   -0.330634
   15   C15       -3.004522823    -0.130960295     1.016790228     C.2   1  *****    0.319101
   16   O16       -2.321593832     0.806430223     1.459229597       O   1  *****   -0.560080
   17   N17       -4.342538851    -0.077709254     0.919928327     N.3   1  *****    0.133563
   18   C18       -5.008300857     1.115108552     1.434353812     C.3   1  *****   -0.625571
   19   C19        2.955648564     1.385340093     0.089626018     C.2   1  *****    0.268537
   20   N20        4.001181743     1.991311773     0.667507551     N.3   1  *****    0.228438
   21   O21        2.048727173     2.026160586    -0.465287678       O   1  *****   -0.516291
   22   C22        4.871506334     1.376045480     1.655587190     C.3   1  *****   -0.605374
   23   N23        0.730683424     2.871516107     2.057095981       N   1  *****    0.932553
   24   N24        0.291408572     1.119102208    -2.968277540       N   1  *****    0.854559
   25   N25       -3.017823688     1.900637745    -1.256208183       N   1  *****    0.892438
   26   Nd26      -0.365793874     1.383075040    -0.170469462      Nd   1  *****    1.893570
   27   O27       -2.437035390     0.767138074    -1.414184026       O   1  *****   -0.594964
   28   O28       -2.340379243     2.792907936    -0.665977393       O   1  *****   -0.520547
   29   O29       -4.166829143     2.083608182    -1.624660196       O   1  *****   -0.447871
   30   O30       -0.059421953     2.228128006    -2.444989419       O   1  *****   -0.561462
   31   O31        0.326415307     0.117708130    -2.166334768       O   1  *****   -0.580454
   32   O32        0.579504382     1.011266229    -4.139818431       O   1  *****   -0.415397
   33   O33        0.777450298     1.592635871     2.039489248       O   1  *****   -0.631013
   34   O34        0.007825132     3.414659041     1.160207281       O   1  *****   -0.562632
   35   O35        1.363931587     3.523846749     2.867004930       O   1  *****   -0.452958
   36   C36       -5.096818044    -0.803129429    -0.094102577     C.3   1  *****   -0.608503
   37   C37        4.037410465     3.450884001     0.625374212     C.3   1  *****   -0.699726
   38   Cl38       4.840201763    -3.504006286    -0.580640947      Cl   1  *****   -0.043981
   39   Cl39      -2.444752733    -5.380329507     0.705740058      Cl   1  *****   -0.050558
   40   H40       -3.748498548    -2.903452656     1.092006408       H   1  *****    0.190679
   41   H41        2.539932648    -4.949973075    -0.330629809       H   1  *****    0.161107
   42   H42        0.201149969    -5.551285687     0.049704839       H   1  *****    0.152161
   43   H43        4.891339207    -0.687811564    -0.306711716       H   1  *****    0.180086
   44   H44       -6.009534028     0.832804348     1.769330717       H   1  *****    0.208753
   45   H45       -4.434263378     1.516005966     2.266778175       H   1  *****    0.240477
   46   H46       -5.086660030     1.876487848     0.652277022       H   1  *****    0.224405
   47   H47        5.918304739     1.429948825     1.339747078       H   1  *****    0.189978
   48   H48        4.598251422     0.337349943     1.827830972       H   1  *****    0.176546
   49   H49        4.762503622     1.912037024     2.603598258       H   1  *****    0.232041
   50   H50       -5.979279148    -1.274900721     0.348298963       H   1  *****    0.196242
   51   H51       -4.480048560    -1.556103066    -0.578104236       H   1  *****    0.193588
   52   H52       -5.406172199    -0.091522441    -0.866561983       H   1  *****    0.235443
   53   H53        5.076076179     3.774116792     0.717688264       H   1  *****    0.229662
   54   H54        3.620718229     3.796750789    -0.318291691       H   1  *****    0.247768
   55   H55        3.444141713     3.866519858     1.447418005       H   1  *****    0.239745


@<TRIPOS>BOND
    1      1      2    2
    2      2      3    1
    3      3      4    2
    4      4      5    1
    5      5      6    2
    6      6      9    1
    7      1      6    1
    8      7      8    2
    9      7     10    1
   10      9     12    2
   11     10      9    1
   12     11     10    2
   13     11     14    1
   14     12     13    1
   15     13     14    2
   16      8      1    1
   17      4     15    1
   18     15     16    2
   19     15     17    1
   20     17     18    1
   21     13     19    1
   22     19     20    1
   23     19     21    2
   24     20     22    1
   25      5     26    1
   26     12     26    1
   27     16     26    1
   28     21     26    1
   29     25     27    2
   30     25     28    2
   31     25     29    1
   32     24     30    2
   33     24     31    2
   34     24     32    1
   35     23     33    2
   36     23     34    2
   37     23     35    1
   38     28     26    1
   39     27     26    1
   40     30     26    1
   41     31     26    1
   42     34     26    1
   43     33     26    1
   44     17     36    1
   45     20     37    1
   46     11     38    1
   47      2     39    1
   48      3     40    1
   49      7     41    1
   50      8     42    1
   51     14     43    1
   52     18     44    1
   53     18     45    1
   54     18     46    1
   55     22     47    1
   56     22     48    1
   57     22     49    1
   58     36     50    1
   59     36     51    1
   60     36     52    1
   61     37     53    1
   62     37     54    1
   63     37     55    1
#
#	File Created by: Spartan '14 Export
#

@<TRIPOS>MOLECULE
*****
55 63
SMALL
USER_CHARGES


@<TRIPOS>ATOM
    1   C1        -0.718650712    -3.674845086     0.329882037     C.2   1  *****   -0.131336
    2   C2        -2.079329981    -3.802401325     0.656199103     C.2   1  *****    0.437939
    3   C3        -2.877047364    -2.706811845     0.897677582     C.2   1  *****   -0.525400
    4   C4        -2.302422653    -1.433716067     0.753135089     C.2   1  *****    0.453619
    5   N5        -1.027075090    -1.276570343     0.436958376       N   1  *****   -0.568926
    6   C6        -0.245932604    -2.348372575     0.263413967     C.2   1  *****    0.347683
    7   C7         1.495449742    -4.539992723    -0.146281779     C.2   1  *****   -0.177553
    8   C8         0.174849934    -4.765764810     0.101584828     C.2   1  *****   -0.144606
    9   C9         1.157355363    -2.112956289     0.060710102     C.2   1  *****    0.244186
   10   C10        2.016669953    -3.210262935    -0.152077909     C.2   1  *****   -0.054566
   11   C11        3.368130280    -2.876187535    -0.344793685     C.2   1  *****    0.368603
   12   N12        1.573680560    -0.844972982     0.118992379       N   1  *****   -0.479607
   13   C13        2.858819931    -0.573588422    -0.021406635     C.2   1  *****    0.396893
   14   C14        3.810706743    -1.574678075    -0.280746980     C.2   1  *****   -0.446185
   15   C15       -2.952068845    -0.111649202     1.097732565     C.2   1  *****    0.374650
   16   O16       -2.188491812     0.775406146     1.510242354       O   1  *****   -0.573545
   17   N17       -4.283707261     0.046015635     1.033104469     N.3   1  *****    0.112374
   18   C18       -4.838887018     1.294031959     1.547956443     C.3   1  *****   -0.615474
   19   C19        3.113589021     0.911754878    -0.002148696     C.2   1  *****    0.314136
   20   N20        4.232808457     1.427988783     0.524703560     N.3   1  *****    0.192732
   21   O21        2.239725053     1.629827596    -0.513049384       O   1  *****   -0.522041
   22   C22        5.094658119     0.745098823     1.474597465     C.3   1  *****   -0.621249
   23   N23        1.041356848     2.591054616     2.016730633       N   1  *****    0.921125
   24   N24        0.364346237     0.867161484    -2.981127301       N   1  *****    0.859207
   25   N25       -2.849697314     1.878339249    -1.201737151       N   1  *****    0.895344
   26   Nd26      -0.216872454     1.177261286    -0.169851852      Nd   1  *****    1.902966
   27   O27       -2.353818048     0.705861062    -1.363426764       O   1  *****   -0.595477
   28   O28       -2.097438814     2.725000625    -0.636168012       O   1  *****   -0.523760
   29   O29       -3.992222162     2.138255376    -1.543849226       O   1  *****   -0.451071
   30   O30        0.109417072     1.998946230    -2.451167363       O   1  *****   -0.565242
   31   O31        0.338534580    -0.134928469    -2.180244238       O   1  *****   -0.583322
   32   O32        0.621426580     0.739628183    -4.158152272       O   1  *****   -0.416334
   33   O33        0.980932282     1.312676713     2.012169781       O   1  *****   -0.624199
   34   O34        0.346265675     3.184505463     1.129428133       O   1  *****   -0.560845
   35   O35        1.744445234     3.195636318     2.805508920       O   1  *****   -0.449487
   36   C36       -5.121861307    -0.633987232     0.054906366     C.3   1  *****   -0.602882
   37   C37        4.382504239     2.879997510     0.479386616     C.3   1  *****   -0.670449
   38   F38        4.236404008    -3.856392001    -0.587981571       F   1  *****   -0.147457
   39   F39       -2.593268165    -5.025944090     0.763760731       F   1  *****   -0.155320
   40   H40       -3.905629215    -2.847858152     1.202038235       H   1  *****    0.226830
   41   H41        2.173354515    -5.366090417    -0.324276995       H   1  *****    0.169825
   42   H42       -0.217396123    -5.775291589     0.130221842       H   1  *****    0.164637
   43   H43        4.856516645    -1.351632662    -0.448805184       H   1  *****    0.215011
   44   H44       -5.858256186     1.100859969     1.890879777       H   1  *****    0.208506
   45   H45       -4.225967455     1.645510902     2.375042273       H   1  *****    0.235241
   46   H46       -4.856978989     2.057807413     0.764326726       H   1  *****    0.221791
   47   H47        6.129878858     0.729993667     1.118704725       H   1  *****    0.196581
   48   H48        4.757971344    -0.274013013     1.649514939       H   1  *****    0.185625
   49   H49        5.060045850     1.278178508     2.430090311       H   1  *****    0.236056
   50   H50       -6.008758477    -1.058951952     0.534922741       H   1  *****    0.192070
   51   H51       -4.569249713    -1.416597899    -0.459274223       H   1  *****    0.195220
   52   H52       -5.426973102     0.095346219    -0.702491770       H   1  *****    0.236796
   53   H53        5.445460887     3.121711218     0.540998978       H   1  *****    0.225920
   54   H54        3.967707011     3.258946651    -0.452465950       H   1  *****    0.240427
   55   H55        3.847950030     3.341876032     1.316939663       H   1  *****    0.234342


@<TRIPOS>BOND
    1      1      2    2
    2      2      3    1
    3      3      4    2
    4      4      5    1
    5      5      6    2
    6      6      9    1
    7      1      6    1
    8      7      8    2
    9      7     10    1
   10      9     12    2
   11     10      9    1
   12     11     10    2
   13     11     14    1
   14     12     13    1
   15     13     14    2
   16      8      1    1
   17      4     15    1
   18     15     16    2
   19     15     17    1
   20     17     18    1
   21     13     19    1
   22     19     20    1
   23     19     21    2
   24     20     22    1
   25      5     26    1
   26     12     26    1
   27     16     26    1
   28     21     26    1
   29     25     27    2
   30     25     28    2
   31     25     29    1
   32     24     30    2
   33     24     31    2
   34     24     32    1
   35     23     33    2
   36     23     34    2
   37     23     35    1
   38     28     26    1
   39     27     26    1
   40     30     26    1
   41     31     26    1
   42     34     26    1
   43     33     26    1
   44     17     36    1
   45     20     37    1
   46     11     38    1
   47      2     39    1
   48      3     40    1
   49      7     41    1
   50      8     42    1
   51     14     43    1
   52     18     44    1
   53     18     45    1
   54     18     46    1
   55     22     47    1
   56     22     48    1
   57     22     49    1
   58     36     50    1
   59     36     51    1
   60     36     52    1
   61     37     53    1
   62     37     54    1
   63     37     55    1
#
#	File Created by: Spartan '14 Export
#

@<TRIPOS>MOLECULE
*****
59 67
SMALL
USER_CHARGES


@<TRIPOS>ATOM
    1   C1        -0.492220888    -3.387225422     0.223561634     C.2   1  *****   -0.017803
    2   C2        -1.857764833    -3.623103949     0.503115454     C.2   1  *****    0.049434
    3   C3        -2.736028152    -2.590343368     0.746537114     C.2   1  *****   -0.380904
    4   C4        -2.269777592    -1.274143758     0.632196119     C.2   1  *****    0.495943
    5   N5        -0.999521535    -1.019289809     0.366567433       N   1  *****   -0.536883
    6   C6        -0.125157099    -2.018212757     0.214757936     C.2   1  *****    0.353788
    7   C7         1.839278276    -4.003871246    -0.147397356     C.2   1  *****   -0.220063
    8   C8         0.533205308    -4.359918667     0.005755080     C.2   1  *****   -0.171742
    9   C9         1.265571100    -1.642270398     0.093186199     C.2   1  *****    0.206920
   10   C10        2.259717317    -2.637814669    -0.085012714     C.2   1  *****    0.089702
   11   C11        3.576970850    -2.134232527    -0.195261319     C.2   1  *****   -0.038545
   12   N12        1.530251909    -0.337597522     0.192322439       N   1  *****   -0.467058
   13   C13        2.776362576     0.092884996     0.125574347     C.2   1  *****    0.460907
   14   C14        3.843624055    -0.786063973    -0.099073925     C.2   1  *****   -0.301440
   15   C15       -3.041382610    -0.019435054     0.972151968     C.2   1  *****    0.299242
   16   O16       -2.365420082     0.922062859     1.418863795       O   1  *****   -0.560925
   17   N17       -4.377360935     0.021814948     0.872196208     N.3   1  *****    0.139437
   18   C18       -5.057716424     1.206122706     1.388730387     C.3   1  *****   -0.620267
   19   C19        2.865744118     1.596320840     0.144009907     C.2   1  *****    0.238236
   20   N20        3.880837023     2.230428604     0.740311057     N.3   1  *****    0.226469
   21   O21        1.960690086     2.204608147    -0.450455697       O   1  *****   -0.513286
   22   C22        4.746207785     1.642417181     1.749677063     C.3   1  *****   -0.593288
   23   N23        0.611389942     3.027355320     2.063226852       N   1  *****    0.934755
   24   N24        0.274273304     1.204324854    -2.960745780       N   1  *****    0.864152
   25   N25       -3.075075377     1.991451366    -1.311067853       N   1  *****    0.893283
   26   Nd26      -0.435621250     1.535140590    -0.183489430      Nd   1  *****    1.897030
   27   O27       -2.474211466     0.864982204    -1.449358200       O   1  *****   -0.597859
   28   O28       -2.415326476     2.902093488    -0.726712913       O   1  *****   -0.521649
   29   O29       -4.222712184     2.151502086    -1.689976970       O   1  *****   -0.441720
   30   O30       -0.102925572     2.320597422    -2.473665003       O   1  *****   -0.562502
   31   O31        0.311725916     0.225157563    -2.129105291       O   1  *****   -0.586917
   32   O32        0.582918565     1.067107166    -4.122810723       O   1  *****   -0.409972
   33   O33        0.679941437     1.748728559     2.039002565       O   1  *****   -0.630688
   34   O34       -0.109987600     3.562719226     1.160147013       O   1  *****   -0.562659
   35   O35        1.224006998     3.685086627     2.883404679       O   1  *****   -0.448345
   36   C36       -5.130141076    -0.723342362    -0.128941454     C.3   1  *****   -0.608884
   37   C37        3.897740266     3.689753817     0.673319913     C.3   1  *****   -0.674744
   38   N38        4.747615545    -3.006339509    -0.408558096       N   1  *****    0.748956
   39   O39        5.751179066    -2.481243602    -0.867780742     O.2   1  *****   -0.374743
   40   O40        4.652306031    -4.184786915    -0.091286518     O.2   1  *****   -0.399494
   41   N41       -2.421810342    -4.983323631     0.586078991       N   1  *****    0.715013
   42   O42       -1.865344199    -5.872156304    -0.044519854     O.2   1  *****   -0.377561
   43   O43       -3.428259302    -5.123224961     1.265674779     O.2   1  *****   -0.374354
   44   H44       -3.753332813    -2.818226832     1.031968956       H   1  *****    0.196942
   45   H45        2.582200099    -4.771491463    -0.300126351       H   1  *****    0.203028
   46   H46        0.259080086    -5.403255968    -0.035754025       H   1  *****    0.187057
   47   H47        4.860495332    -0.437081021    -0.217131042       H   1  *****    0.180096
   48   H48       -6.052472065     0.909402829     1.729684954       H   1  *****    0.211039
   49   H49       -4.485151369     1.617514386     2.216965727       H   1  *****    0.242771
   50   H50       -5.151572974     1.963415350     0.604552147       H   1  *****    0.223405
   51   H51        5.796014218     1.704886990     1.446677767       H   1  *****    0.194614
   52   H52        4.483356904     0.603412049     1.936644931       H   1  *****    0.173191
   53   H53        4.615912176     2.192317173     2.686701270       H   1  *****    0.229835
   54   H54       -5.995614632    -1.212916907     0.326630789       H   1  *****    0.203014
   55   H55       -4.504220902    -1.462687003    -0.621951118       H   1  *****    0.193641
   56   H56       -5.464336246    -0.019908631    -0.898172651       H   1  *****    0.237401
   57   H57        4.931039327     4.028289230     0.769264863       H   1  *****    0.226641
   58   H58        3.484803237     4.012987947    -0.279859157       H   1  *****    0.244205
   59   H59        3.291872541     4.109321188     1.483845577       H   1  *****    0.234148


@<TRIPOS>BOND
    1      1      2    2
    2      2      3    1
    3      3      4    2
    4      4      5    1
    5      5      6    2
    6      6      9    1
    7      1      6    1
    8      7      8    2
    9      7     10    1
   10      9     12    2
   11     10      9    1
   12     11     10    2
   13     11     14    1
   14     12     13    1
   15     13     14    2
   16      8      1    1
   17      4     15    1
   18     15     16    2
   19     15     17    1
   20     17     18    1
   21     13     19    1
   22     19     20    1
   23     19     21    2
   24     20     22    1
   25      5     26    1
   26     12     26    1
   27     16     26    1
   28     21     26    1
   29     25     27    2
   30     25     28    2
   31     25     29    1
   32     24     30    2
   33     24     31    2
   34     24     32    1
   35     23     33    2
   36     23     34    2
   37     23     35    1
   38     28     26    1
   39     27     26    1
   40     30     26    1
   41     31     26    1
   42     34     26    1
   43     33     26    1
   44     17     36    1
   45     20     37    1
   46     38     39    2
   47     38     40    2
   48     11     38    1
   49     41     42    2
   50     41     43    2
   51      2     41    1
   52      3     44    1
   53      7     45    1
   54      8     46    1
   55     14     47    1
   56     18     48    1
   57     18     49    1
   58     18     50    1
   59     22     51    1
   60     22     52    1
   61     22     53    1
   62     36     54    1
   63     36     55    1
   64     36     56    1
   65     37     57    1
   66     37     58    1
   67     37     59    1
#
#	File Created by: Spartan '14 Export
#

@<TRIPOS>MOLECULE
*****
63 71
SMALL
USER_CHARGES


@<TRIPOS>ATOM
    1   C1        -0.809834413    -3.466643900     0.260781288     C.2   1  *****   -0.210511
    2   C2        -2.196032333    -3.612866500     0.539850252     C.2   1  *****    0.503140
    3   C3        -2.970271821    -2.482099730     0.763843324     C.2   1  *****   -0.533009
    4   C4        -2.371524724    -1.218326584     0.649441629     C.2   1  *****    0.412863
    5   N5        -1.088105902    -1.064134585     0.378100887       N   1  *****   -0.586560
    6   C6        -0.316399204    -2.151023447     0.222986629     C.2   1  *****    0.380894
    7   C7         1.417191779    -4.339717007    -0.152866394     C.2   1  *****   -0.142495
    8   C8         0.085075446    -4.556638625     0.050693645     C.2   1  *****   -0.120430
    9   C9         1.094063772    -1.926302925     0.070352256     C.2   1  *****    0.261146
   10   C10        1.955095698    -3.019931628    -0.128160107     C.2   1  *****   -0.133484
   11   C11        3.335225078    -2.716886087    -0.287723385     C.2   1  *****    0.432014
   12   N12        1.511398113    -0.655726793     0.159487768       N   1  *****   -0.491905
   13   C13        2.801580003    -0.401340968     0.065717805     C.2   1  *****    0.376932
   14   C14        3.758890559    -1.399648004    -0.179855863     C.2   1  *****   -0.467046
   15   C15       -3.025921275     0.102665816     0.985256131     C.2   1  *****    0.415749
   16   O16       -2.280067111     0.978159142     1.450159829       O   1  *****   -0.578106
   17   N17       -4.355849846     0.271547437     0.861080797     N.3   1  *****    0.064426
   18   C18       -4.920587361     1.517691062     1.370069306     C.3   1  *****   -0.599955
   19   C19        3.075189607     1.078712025     0.123711841     C.2   1  *****    0.328343
   20   N20        4.179381391     1.569395129     0.709886863     N.3   1  *****    0.169610
   21   O21        2.238305609     1.823214314    -0.410363709       O   1  *****   -0.522064
   22   C22        4.959588311     0.863738884     1.711720419     C.3   1  *****   -0.580459
   23   N23        0.960035434     2.755146934     2.094941104       N   1  *****    0.928262
   24   N24        0.432965826     1.148533210    -2.956967845       N   1  *****    0.854644
   25   N25       -2.810302026     2.163118053    -1.267311443       N   1  *****    0.903629
   26   Nd26      -0.231087567     1.367031551    -0.152852167      Nd   1  *****    1.904266
   27   O27       -2.335799473     0.983823315    -1.438002180       O   1  *****   -0.595041
   28   O28       -2.069616285     2.975326907    -0.642243846       O   1  *****   -0.525509
   29   O29       -3.929033164     2.460649610    -1.659654035       O   1  *****   -0.459489
   30   O30        0.169993016     2.264744591    -2.398985868       O   1  *****   -0.566282
   31   O31        0.372764212     0.121048527    -2.192964248       O   1  *****   -0.580747
   32   O32        0.728286961     1.058724694    -4.129800450       O   1  *****   -0.422223
   33   O33        0.895423154     1.477981301     2.077148211       O   1  *****   -0.625844
   34   O34        0.298407136     3.360038226     1.191018652       O   1  *****   -0.561232
   35   O35        1.639449562     3.350208852     2.913130801       O   1  *****   -0.459181
   36   C36       -5.125806761    -0.336858399    -0.217403870     C.3   1  *****   -0.560086
   37   C37        4.349215488     3.019313151     0.700174232     C.3   1  *****   -0.688924
   38   O38        4.137526421    -3.762202696    -0.531120676     O.3   1  *****   -0.212529
   39   C39        5.521897417    -3.528977258    -0.739417892     C.3   1  *****   -0.369807
   40   O40       -2.649640632    -4.871913178     0.594353483     O.3   1  *****   -0.226276
   41   C41       -4.026463838    -5.094987542     0.858882054     C.3   1  *****   -0.363179
   42   H42       -4.011386831    -2.562944736     1.042235077       H   1  *****    0.193284
   43   H43        2.091154433    -5.171065969    -0.318300559       H   1  *****    0.141456
   44   H44       -0.314083710    -5.563447066     0.056040945       H   1  *****    0.139445
   45   H45        4.798768896    -1.131593474    -0.305856419       H   1  *****    0.185915
   46   H46       -5.957778450     1.331525709     1.660432510       H   1  *****    0.201245
   47   H47       -4.343948906     1.847439467     2.231452686       H   1  *****    0.231727
   48   H48       -4.893276302     2.296507999     0.601402874       H   1  *****    0.218807
   49   H49        6.020148118     0.852197411     1.439166444       H   1  *****    0.180382
   50   H50        4.606617144    -0.157730357     1.833112779       H   1  *****    0.176649
   51   H51        4.850937600     1.375354197     2.673766766       H   1  *****    0.226603
   52   H52       -6.098048206    -0.674051517     0.154404576       H   1  *****    0.179634
   53   H53       -4.590174930    -1.174134237    -0.657718732       H   1  *****    0.181623
   54   H54       -5.267895903     0.411787117    -1.004230425       H   1  *****    0.224025
   55   H55        5.409754074     3.246150022     0.828987428       H   1  *****    0.226715
   56   H56        3.995552614     3.419122450    -0.248090972       H   1  *****    0.243438
   57   H57        3.771405086     3.475299930     1.512057030       H   1  *****    0.240829
   58   H58        5.961204271    -4.506703770    -0.931304661       H   1  *****    0.193765
   59   H59        5.985786460    -3.087747706     0.149502505       H   1  *****    0.160331
   60   H60        5.684009772    -2.877705334    -1.604473048       H   1  *****    0.174398
   61   H61       -4.161379371    -6.175130206     0.832933923       H   1  *****    0.192546
   62   H62       -4.653829159    -4.627653974     0.092697852       H   1  *****    0.168830
   63   H63       -4.304567506    -4.714861840     1.847387670       H   1  *****    0.164809


@<TRIPOS>BOND
    1      1      2    2
    2      2      3    1
    3      3      4    2
    4      4      5    1
    5      5      6    2
    6      6      9    1
    7      1      6    1
    8      7      8    2
    9      7     10    1
   10      9     12    2
   11     10      9    1
   12     11     10    2
   13     11     14    1
   14     12     13    1
   15     13     14    2
   16      8      1    1
   17      4     15    1
   18     15     16    2
   19     15     17    1
   20     17     18    1
   21     13     19    1
   22     19     20    1
   23     19     21    2
   24     20     22    1
   25      5     26    1
   26     12     26    1
   27     16     26    1
   28     21     26    1
   29     25     27    2
   30     25     28    2
   31     25     29    1
   32     24     30    2
   33     24     31    2
   34     24     32    1
   35     23     33    2
   36     23     34    2
   37     23     35    1
   38     28     26    1
   39     27     26    1
   40     30     26    1
   41     31     26    1
   42     34     26    1
   43     33     26    1
   44     17     36    1
   45     20     37    1
   46     38     39    1
   47     11     38    1
   48     40     41    1
   49      2     40    1
   50      3     42    1
   51      7     43    1
   52      8     44    1
   53     14     45    1
   54     18     46    1
   55     18     47    1
   56     18     48    1
   57     22     49    1
   58     22     50    1
   59     22     51    1
   60     36     52    1
   61     36     53    1
   62     36     54    1
   63     37     55    1
   64     37     56    1
   65     37     57    1
   66     39     58    1
   67     39     59    1
   68     39     60    1
   69     41     61    1
   70     41     62    1
   71     41     63    1
#
#	File Created by: Spartan '14 Export
#

@<TRIPOS>MOLECULE
*****
57 65
SMALL
USER_CHARGES


@<TRIPOS>ATOM
    1   C1        -0.529030746    -3.575143814     0.303701587     C.2   1  *****   -0.044972
    2   C2        -1.894020000    -3.809217672     0.610619605     C.2   1  *****    0.161237
    3   C3        -2.747208752    -2.737383047     0.837065708     C.2   1  *****   -0.395391
    4   C4        -2.250787720    -1.431745733     0.702502469     C.2   1  *****    0.457889
    5   N5        -0.980952713    -1.203227540     0.409325658       N   1  *****   -0.530730
    6   C6        -0.132257637    -2.223050923     0.250506509     C.2   1  *****    0.344751
    7   C7         1.753707582    -4.284709621    -0.134299989     C.2   1  *****   -0.213410
    8   C8         0.444712950    -4.596333510     0.082962151     C.2   1  *****   -0.149782
    9   C9         1.259894113    -1.896350992     0.078876886     C.2   1  *****    0.192822
   10   C10        2.199706356    -2.928173010    -0.120617149     C.2   1  *****    0.069148
   11   C11        3.547881900    -2.517519822    -0.284061253     C.2   1  *****    0.072224
   12   N12        1.587926481    -0.604558590     0.151564411       N   1  *****   -0.436196
   13   C13        2.852596030    -0.238794261     0.043232503     C.2   1  *****    0.404308
   14   C14        3.873884358    -1.170614979    -0.199600475     C.2   1  *****   -0.311675
   15   C15       -2.981978639    -0.151339970     1.042189270     C.2   1  *****    0.329601
   16   O16       -2.274153236     0.774254866     1.470441161       O   1  *****   -0.562056
   17   N17       -4.318334505    -0.072843727     0.959467035     N.3   1  *****    0.119800
   18   C18       -4.956083389     1.135609798     1.474178002     C.3   1  *****   -0.612532
   19   C19        3.001990328     1.261174454     0.057550296     C.2   1  *****    0.260134
   20   N20        4.063482460     1.856779745     0.614338790     N.3   1  *****    0.220394
   21   O21        2.096085196     1.907331600    -0.492871498       O   1  *****   -0.508990
   22   C22        4.944889369     1.238049592     1.590881359     C.3   1  *****   -0.628421
   23   N23        0.817129587     2.789942074     2.032916727       N   1  *****    0.927832
   24   N24        0.315907248     0.981980659    -2.967952112       N   1  *****    0.858343
   25   N25       -2.976901204     1.853485370    -1.250431498       N   1  *****    0.894440
   26   Nd26      -0.328794479     1.320278778    -0.176043799      Nd   1  *****    1.887602
   27   O27       -2.412109239     0.709777859    -1.396711273       O   1  *****   -0.592141
   28   O28       -2.280558961     2.745351479    -0.680374015       O   1  *****   -0.521667
   29   O29       -4.126266963     2.046250091    -1.609210695       O   1  *****   -0.443772
   30   O30       -0.013719677     2.107495064    -2.467163379       O   1  *****   -0.562618
   31   O31        0.335926711    -0.002981526    -2.143332583       O   1  *****   -0.583646
   32   O32        0.598192867     0.842649884    -4.136641541       O   1  *****   -0.409415
   33   O33        0.835725603     1.509465748     2.018571551       O   1  *****   -0.627476
   34   O34        0.097125435     3.345503922     1.140683472       O   1  *****   -0.560788
   35   O35        1.472038970     3.430105397     2.833828967       O   1  *****   -0.445788
   36   C36       -5.101932456    -0.797788344    -0.032588715     C.3   1  *****   -0.629027
   37   C37        4.122470241     3.315398131     0.553605739     C.3   1  *****   -0.679427
   38   C38        4.566870200    -3.486892159    -0.523714612     C.1   1  *****    0.272142
   39   N39        5.386902675    -4.287168832    -0.709253078     N.1   1  *****   -0.345631
   40   C40       -2.381814044    -5.145761414     0.719047812     C.1   1  *****    0.248142
   41   N41       -2.764709701    -6.238381826     0.801698660     N.1   1  *****   -0.338926
   42   H42       -3.773586144    -2.917255207     1.128406951       H   1  *****    0.207558
   43   H43        2.480837862    -5.071826645    -0.302298051       H   1  *****    0.184831
   44   H44        0.125459530    -5.632892732     0.095895921       H   1  *****    0.175767
   45   H45        4.899334588    -0.851806188    -0.338120854       H   1  *****    0.193400
   46   H46       -5.959857039     0.874524094     1.817864007       H   1  *****    0.211562
   47   H47       -4.367611909     1.528402130     2.300307874       H   1  *****    0.238727
   48   H48       -5.025504908     1.894557440     0.688990827       H   1  *****    0.222442
   49   H49        5.985319803     1.272092822     1.252652758       H   1  *****    0.199963
   50   H50        4.659032805     0.205928520     1.781850987       H   1  *****    0.182358
   51   H51        4.863993585     1.785794399     2.534842796       H   1  *****    0.240344
   52   H52       -5.978353912    -1.259213843     0.431810188       H   1  *****    0.204777
   53   H53       -4.503290563    -1.557939133    -0.528558150       H   1  *****    0.198583
   54   H54       -5.422121477    -0.087854721    -0.801984229       H   1  *****    0.244222
   55   H55        5.167027707     3.622907398     0.630077241       H   1  *****    0.228902
   56   H56        3.700541220     3.656473282    -0.389477599       H   1  *****    0.244440
   57   H57        3.545629374     3.749777591     1.377474494       H   1  *****    0.235789


@<TRIPOS>BOND
    1      1      2    2
    2      2      3    1
    3      3      4    2
    4      4      5    1
    5      5      6    2
    6      6      9    1
    7      1      6    1
    8      7      8    2
    9      7     10    1
   10      9     12    2
   11     10      9    1
   12     11     10    2
   13     11     14    1
   14     12     13    1
   15     13     14    2
   16      8      1    1
   17      4     15    1
   18     15     16    2
   19     15     17    1
   20     17     18    1
   21     13     19    1
   22     19     20    1
   23     19     21    2
   24     20     22    1
   25      5     26    1
   26     12     26    1
   27     16     26    1
   28     21     26    1
   29     25     27    2
   30     25     28    2
   31     25     29    1
   32     24     30    2
   33     24     31    2
   34     24     32    1
   35     23     33    2
   36     23     34    2
   37     23     35    1
   38     28     26    1
   39     27     26    1
   40     30     26    1
   41     31     26    1
   42     34     26    1
   43     33     26    1
   44     17     36    1
   45     20     37    1
   46     38     39    3
   47     11     38    1
   48     40     41    3
   49      2     40    1
   50      3     42    1
   51      7     43    1
   52      8     44    1
   53     14     45    1
   54     18     46    1
   55     18     47    1
   56     18     48    1
   57     22     49    1
   58     22     50    1
   59     22     51    1
   60     36     52    1
   61     36     53    1
   62     36     54    1
   63     37     55    1
   64     37     56    1
   65     37     57    1
#
#	File Created by: Spartan '14 Export
#

@<TRIPOS>MOLECULE
*****
65 73
SMALL
USER_CHARGES


@<TRIPOS>ATOM
    1   C1        -0.584390583    -3.354846150     0.288168668     C.2   1  *****   -0.004810
    2   C2        -1.960082649    -3.593648617     0.547650772     C.2   1  *****   -0.006827
    3   C3        -2.791321134    -2.509403587     0.787593919     C.2   1  *****   -0.347639
    4   C4        -2.301067208    -1.204861042     0.659875866     C.2   1  *****    0.453852
    5   N5        -1.029273118    -0.975867491     0.373947870       N   1  *****   -0.526863
    6   C6        -0.179145662    -1.998865145     0.243027836     C.2   1  *****    0.326246
    7   C7         1.752367138    -4.023650644    -0.024295751     C.2   1  *****   -0.206360
    8   C8         0.437345316    -4.344772322     0.137349897     C.2   1  *****   -0.201029
    9   C9         1.218288083    -1.656076229     0.116099855     C.2   1  *****    0.207597
   10   C10        2.200106781    -2.664418015    -0.026911082     C.2   1  *****    0.086108
   11   C11        3.551792559    -2.227143666    -0.155003427     C.2   1  *****   -0.079652
   12   N12        1.505467201    -0.352224960     0.179613313       N   1  *****   -0.436685
   13   C13        2.761451387     0.043019122     0.124583600     C.2   1  *****    0.403246
   14   C14        3.810651233    -0.866635069    -0.067370475     C.2   1  *****   -0.291745
   15   C15       -3.036750795     0.073406126     0.986840767     C.2   1  *****    0.308900
   16   O16       -2.335684356     1.010834665     1.406381887       O   1  *****   -0.565488
   17   N17       -4.373089375     0.151416667     0.902403677     N.3   1  *****    0.141941
   18   C18       -5.012761977     1.363345586     1.403948019     C.3   1  *****   -0.619146
   19   C19        2.885711733     1.543138253     0.109150255     C.2   1  *****    0.296524
   20   N20        3.900195957     2.165694578     0.727599465     N.3   1  *****    0.137510
   21   O21        2.022835089     2.159429095    -0.536058512       O   1  *****   -0.512015
   22   C22        4.590119401     1.612935162     1.882842166     C.3   1  *****   -0.567132
   23   N23        0.734594635     3.019174079     2.010120594       N   1  *****    0.941372
   24   N24        0.280083352     1.187353167    -3.000372311       N   1  *****    0.866740
   25   N25       -3.033076389     2.074788772    -1.321723007       N   1  *****    0.901265
   26   Nd26      -0.400421170     1.529979470    -0.214468262      Nd   1  *****    1.883748
   27   O27       -2.469019207     0.930740964    -1.462267867       O   1  *****   -0.593140
   28   O28       -2.340446322     2.967220755    -0.747994340       O   1  *****   -0.524150
   29   O29       -4.179711954     2.268533247    -1.690230411       O   1  *****   -0.451315
   30   O30       -0.069760825     2.311454168    -2.511773313       O   1  *****   -0.564516
   31   O31        0.294762129     0.206275564    -2.172753051       O   1  *****   -0.592676
   32   O32        0.585742063     1.046231182    -4.164288987       O   1  *****   -0.419539
   33   O33        0.763985669     1.740127969     1.998723141       O   1  *****   -0.629988
   34   O34        0.016739547     3.568774187     1.115399935       O   1  *****   -0.561988
   35   O35        1.385253053     3.665105573     2.813839639       O   1  *****   -0.457531
   36   C36       -5.160179760    -0.591588535    -0.072107108     C.3   1  *****   -0.603774
   37   C37        3.962578472     3.620423954     0.613497128     C.3   1  *****   -0.643566
   38   C38        4.699271515    -3.175052433    -0.381299327     C.2   1  *****    0.669748
   39   C39        6.049273490    -2.597761907    -0.740287032     C.3   1  *****   -0.758352
   40   O40        4.558116820    -4.379541034    -0.282451765     O.2   1  *****   -0.446742
   41   C41       -2.640472384    -4.941910120     0.616930054     C.2   1  *****    0.658068
   42   C42       -2.181479245    -6.086455344    -0.253590541     C.3   1  *****   -0.746043
   43   O43       -3.611029563    -5.063706102     1.337583955     O.2   1  *****   -0.446288
   44   H44       -3.816338348    -2.704501973     1.075164670       H   1  *****    0.175515
   45   H45        2.492108969    -4.803815409    -0.121612910       H   1  *****    0.184354
   46   H46        0.172731755    -5.392003522     0.174459637       H   1  *****    0.159628
   47   H47        4.820210640    -0.489638234    -0.166906396       H   1  *****    0.156079
   48   H48       -6.013306622     1.102834177     1.757775872       H   1  *****    0.207745
   49   H49       -4.420923814     1.770723363     2.220522402       H   1  *****    0.238978
   50   H50       -5.090780388     2.111355505     0.608948107       H   1  *****    0.221029
   51   H51        5.666574201     1.787951054     1.800838113       H   1  *****    0.189947
   52   H52        4.404803252     0.544899474     1.976959387       H   1  *****    0.167825
   53   H53        4.213807795     2.102415781     2.787986057       H   1  *****    0.226433
   54   H54       -6.027311293    -1.056355159     0.406379745       H   1  *****    0.198396
   55   H55       -4.559229456    -1.352728632    -0.562541397       H   1  *****    0.191345
   56   H56       -5.494721302     0.107180946    -0.845650974       H   1  *****    0.232863
   57   H57        4.999150214     3.933343734     0.755945461       H   1  *****    0.218068
   58   H58        3.613776449     3.920858407    -0.372238746       H   1  *****    0.236842
   59   H59        3.327864686     4.088188006     1.373893558       H   1  *****    0.230725
   60   H60        6.723071810    -3.426109914    -0.956527368       H   1  *****    0.221599
   61   H61        5.988330977    -1.938458910    -1.611479133       H   1  *****    0.215674
   62   H62        6.465341804    -2.015480530     0.088808200       H   1  *****    0.207498
   63   H63       -1.487582417    -6.726934052     0.302825338       H   1  *****    0.212607
   64   H64       -3.055296972    -6.693565943    -0.495963749       H   1  *****    0.222307
   65   H65       -1.687252678    -5.756507166    -1.169649165       H   1  *****    0.206678


@<TRIPOS>BOND
    1      1      2    2
    2      2      3    1
    3      3      4    2
    4      4      5    1
    5      5      6    2
    6      6      9    1
    7      1      6    1
    8      7      8    2
    9      7     10    1
   10      9     12    2
   11     10      9    1
   12     11     10    2
   13     11     14    1
   14     12     13    1
   15     13     14    2
   16      8      1    1
   17      4     15    1
   18     15     16    2
   19     15     17    1
   20     17     18    1
   21     13     19    1
   22     19     20    1
   23     19     21    2
   24     20     22    1
   25      5     26    1
   26     12     26    1
   27     16     26    1
   28     21     26    1
   29     25     27    2
   30     25     28    2
   31     25     29    1
   32     24     30    2
   33     24     31    2
   34     24     32    1
   35     23     33    2
   36     23     34    2
   37     23     35    1
   38     28     26    1
   39     27     26    1
   40     30     26    1
   41     31     26    1
   42     34     26    1
   43     33     26    1
   44     17     36    1
   45     20     37    1
   46     38     39    1
   47     38     40    2
   48     11     38    1
   49     41     42    1
   50     41     43    2
   51      2     41    1
   52      3     44    1
   53      7     45    1
   54      8     46    1
   55     14     47    1
   56     18     48    1
   57     18     49    1
   58     18     50    1
   59     22     51    1
   60     22     52    1
   61     22     53    1
   62     36     54    1
   63     36     55    1
   64     36     56    1
   65     37     57    1
   66     37     58    1
   67     37     59    1
   68     39     60    1
   69     39     61    1
   70     39     62    1
   71     42     63    1
   72     42     64    1
   73     42     65    1
#
#	File Created by: Spartan '14 Export
#

@<TRIPOS>MOLECULE
*****
71 79
SMALL
USER_CHARGES


@<TRIPOS>ATOM
    1   C1        -0.618833976    -3.306731644     0.298882512     C.2   1  *****   -0.213053
    2   C2        -1.999807610    -3.566084937     0.576198105     C.2   1  *****    0.373079
    3   C3        -2.857124217    -2.467328511     0.663402444     C.2   1  *****   -0.412850
    4   C4        -2.356417299    -1.171049644     0.518739625     C.2   1  *****    0.351590
    5   N5        -1.070940401    -0.924307091     0.326793753       N   1  *****   -0.569584
    6   C6        -0.219430665    -1.956587576     0.239418598     C.2   1  *****    0.387403
    7   C7         1.680700117    -3.978085930    -0.163019550     C.2   1  *****   -0.238981
    8   C8         0.372656819    -4.303799767     0.055304127     C.2   1  *****   -0.095216
    9   C9         1.176013839    -1.619538707     0.112444421     C.2   1  *****    0.263118
   10   C10        2.130070963    -2.624124738    -0.140117135     C.2   1  *****   -0.073925
   11   C11        3.489988804    -2.206132721    -0.314250822     C.2   1  *****    0.289299
   12   N12        1.482296956    -0.325603465     0.279188177       N   1  *****   -0.509523
   13   C13        2.754636715     0.026355077     0.255483193     C.2   1  *****    0.349256
   14   C14        3.787303217    -0.869755989    -0.038002964     C.2   1  *****   -0.382650
   15   C15       -3.131154833     0.099473058     0.777803429     C.2   1  *****    0.409452
   16   O16       -2.489587217     1.037831357     1.276145297       O   1  *****   -0.575919
   17   N17       -4.457082112     0.165599505     0.553620842     N.3   1  *****    0.065835
   18   C18       -5.147699294     1.378092144     0.980963970     C.3   1  *****   -0.596586
   19   C19        2.912068764     1.518084074     0.381742894     C.2   1  *****    0.329513
   20   N20        3.931263337     2.067030391     1.061675351     N.3   1  *****    0.180450
   21   O21        2.060579298     2.217154182    -0.190036182       O   1  *****   -0.529758
   22   C22        4.709352947     1.372389947     2.071892975     C.3   1  *****   -0.575417
   23   N23        0.489863823     3.049198420     2.172735052       N   1  *****    0.939583
   24   N24        0.536719133     1.415186553    -2.905695261       N   1  *****    0.869748
   25   N25       -2.910683891     2.138042576    -1.492109435       N   1  *****    0.915776
   26   Nd26      -0.372617148     1.562272998    -0.160610417      Nd   1  *****    1.911639
   27   O27       -2.331111390     1.000331990    -1.610554519       O   1  *****   -0.601842
   28   O28       -2.290645526     3.011858614    -0.820817461       O   1  *****   -0.528358
   29   O29       -4.015625732     2.341185579    -1.975033058       O   1  *****   -0.465207
   30   O30        0.134486827     2.501283501    -2.372965705       O   1  *****   -0.569712
   31   O31        0.501165483     0.381538072    -2.149460184       O   1  *****   -0.588255
   32   O32        0.934613814     1.357827592    -4.050781981       O   1  *****   -0.432802
   33   O33        0.532097205     1.772028241     2.163368698       O   1  *****   -0.625797
   34   O34       -0.131233423     3.594718465     1.203928379       O   1  *****   -0.565831
   35   O35        1.035872426     3.702361324     3.045137108       O   1  *****   -0.466043
   36   C36       -5.099871144    -0.534082199    -0.551698655     C.3   1  *****   -0.544156
   37   C37        3.983365850     3.524037339     1.126654845     C.3   1  *****   -0.696050
   38   N38        4.464792602    -3.107031353    -0.698206025     N.3   1  *****   -0.028347
   39   C39        5.854244481    -2.758008447    -0.486305586     C.3   1  *****   -0.611019
   40   C40        4.269634758    -3.901827736    -1.907757053     C.3   1  *****   -0.414566
   41   N41       -2.464968030    -4.861251175     0.726542953     N.3   1  *****   -0.052655
   42   C42       -1.856989810    -5.733396882     1.725173022     C.3   1  *****   -0.429433
   43   C43       -3.883575364    -5.108423932     0.568819193     C.3   1  *****   -0.593972
   44   H44       -3.898746137    -2.607259944     0.917567411       H   1  *****    0.172389
   45   H45        2.400413137    -4.771731566    -0.317904686       H   1  *****    0.152685
   46   H46        0.074951708    -5.343745220     0.014354420       H   1  *****    0.134310
   47   H47        4.797615022    -0.497851768    -0.143386735       H   1  *****    0.173110
   48   H48       -6.187355784     1.122104165     1.201255357       H   1  *****    0.197877
   49   H49       -4.663680657     1.773788707     1.871319618       H   1  *****    0.228567
   50   H50       -5.119829794     2.136862684     0.192409585       H   1  *****    0.218712
   51   H51        5.780932360     1.499318452     1.886355390       H   1  *****    0.180098
   52   H52        4.469972541     0.311640314     2.085511259       H   1  *****    0.170124
   53   H53        4.473823067     1.788403366     3.057486736       H   1  *****    0.220674
   54   H54       -6.082997941    -0.901242415    -0.242811897       H   1  *****    0.178239
   55   H55       -4.489554385    -1.366735714    -0.891667629       H   1  *****    0.172169
   56   H56       -5.209383023     0.165126187    -1.387802579       H   1  *****    0.218124
   57   H57        5.014729209     3.827112541     1.319319278       H   1  *****    0.226115
   58   H58        3.642800766     3.940703476     0.180933531       H   1  *****    0.244142
   59   H59        3.332524920     3.893680557     1.927295039       H   1  *****    0.243436
   60   H60        6.457116346    -3.664691431    -0.582205825       H   1  *****    0.222200
   61   H61        5.996000569    -2.362088214     0.521220678       H   1  *****    0.198486
   62   H62        6.230969335    -2.024020085    -1.216207512       H   1  *****    0.198120
   63   H63        4.646146060    -4.919703041    -1.763431742       H   1  *****    0.151525
   64   H64        3.217213870    -3.947058852    -2.178563724       H   1  *****    0.178339
   65   H65        4.810374179    -3.449895799    -2.751246316       H   1  *****    0.169902
   66   H66       -1.824250194    -6.765759782     1.361843514       H   1  *****    0.163433
   67   H67       -0.845319921    -5.411131489     1.961333296       H   1  *****    0.161090
   68   H68       -2.440819810    -5.715976001     2.657348757       H   1  *****    0.168723
   69   H69       -4.031743820    -6.178910726     0.402884987       H   1  *****    0.217365
   70   H70       -4.263601730    -4.572699964    -0.302766635       H   1  *****    0.201014
   71   H71       -4.474355070    -4.820160899     1.452931493       H   1  *****    0.190802


@<TRIPOS>BOND
    1      1      2    2
    2      2      3    1
    3      3      4    2
    4      4      5    1
    5      5      6    2
    6      6      9    1
    7      1      6    1
    8      7      8    2
    9      7     10    1
   10      9     12    2
   11     10      9    1
   12     11     10    2
   13     11     14    1
   14     12     13    1
   15     13     14    2
   16      8      1    1
   17      4     15    1
   18     15     16    2
   19     15     17    1
   20     17     18    1
   21     13     19    1
   22     19     20    1
   23     19     21    2
   24     20     22    1
   25      5     26    1
   26     12     26    1
   27     16     26    1
   28     21     26    1
   29     25     27    2
   30     25     28    2
   31     25     29    1
   32     24     30    2
   33     24     31    2
   34     24     32    1
   35     23     33    2
   36     23     34    2
   37     23     35    1
   38     28     26    1
   39     27     26    1
   40     30     26    1
   41     31     26    1
   42     34     26    1
   43     33     26    1
   44     17     36    1
   45     20     37    1
   46     38     39    1
   47     38     40    1
   48     11     38    1
   49     41     42    1
   50     41     43    1
   51      2     41    1
   52      3     44    1
   53      7     45    1
   54      8     46    1
   55     14     47    1
   56     18     48    1
   57     18     49    1
   58     18     50    1
   59     22     51    1
   60     22     52    1
   61     22     53    1
   62     36     54    1
   63     36     55    1
   64     36     56    1
   65     37     57    1
   66     37     58    1
   67     37     59    1
   68     39     60    1
   69     39     61    1
   70     39     62    1
   71     40     63    1
   72     40     64    1
   73     40     65    1
   74     42     66    1
   75     42     67    1
   76     42     68    1
   77     43     69    1
   78     43     70    1
   79     43     71    1
#
#	File Created by: Spartan '14 Export
#

@<TRIPOS>MOLECULE
*****
57 65
SMALL
USER_CHARGES


@<TRIPOS>ATOM
    1   C1        -1.586783088    -3.654990925     0.534967111     C.2   1  *****    0.105161
    2   C2        -2.910530872    -3.488283045     0.928394319     C.2   1  *****   -0.118486
    3   C3        -3.496743345    -2.225463389     0.890102426     C.2   1  *****   -0.290977
    4   C4        -2.718640529    -1.142845617     0.481895309     C.2   1  *****    0.391869
    5   N5        -1.442712797    -1.291581192     0.142310098       N   1  *****   -0.347586
    6   C6        -0.900829076    -2.503382695     0.132259064     C.2   1  *****    0.133435
    7   C7         2.363759646    -3.804435426    -1.139254292     C.2   1  *****   -0.086449
    8   C8         1.063434884    -3.824254485    -0.644945634     C.2   1  *****    0.046600
    9   C9         0.487737629    -2.585429794    -0.335912059     C.2   1  *****    0.321668
   10   N10        1.119845179    -1.429394507    -0.508892764       N   1  *****   -0.530478
   11   C11        2.368105440    -1.416102752    -0.972098815     C.2   1  *****    0.381524
   12   C12        3.032314709    -2.594032783    -1.306557891     C.2   1  *****   -0.286896
   13   C13       -3.109251996     0.310331621     0.484873199     C.2   1  *****    0.207738
   14   C14        2.832130514    -0.003225545    -1.209915573     C.2   1  *****    0.267355
   15   O15       -2.248186251     1.112373464     0.887328811       O   1  *****   -0.450947
   16   N16       -4.318983251     0.718963732     0.077938066     N.3   1  *****    0.184344
   17   N17        4.103735251     0.369648742    -1.034796531     N.3   1  *****    0.169918
   18   O18        1.959148521     0.795062486    -1.597506577       O   1  *****   -0.489952
   19   N19        1.588588964    -0.241810708     2.259589436       N   1  *****    0.895920
   20   O20        0.320520276    -0.324947865     2.160954967       O   1  *****   -0.592367
   21   O21        2.164105641     0.494125095     1.384399986       O   1  *****   -0.571804
   22   O22        2.216399330    -0.839125722     3.111164895       O   1  *****   -0.446308
   23   N23       -1.761129285     1.834563519    -2.029237712       N   1  *****    0.973118
   24   O24       -1.373200580     0.617938445    -1.928460179       O   1  *****   -0.653205
   25   O25       -1.115239185     2.682234427    -1.341875033       O   1  *****   -0.590036
   26   O26       -2.720467048     2.141779714    -2.719670251       O   1  *****   -0.469757
   27   N27        1.005275749     3.496205778     1.170002040       N   1  *****    0.892727
   28   O28        1.506961458     3.013013898     0.097042737       O   1  *****   -0.550494
   29   O29        0.043352766     2.816403915     1.676626223       O   1  *****   -0.585986
   30   O30        1.409544983     4.519630438     1.674558865       O   1  *****   -0.432558
   31   C31       -0.830046560    -4.955062339     0.595425529     C.3   1  *****   -0.308870
   32   C32        0.223794991    -5.068381270    -0.514324416     C.3   1  *****   -0.306223
   33   H33       -3.486319559    -4.342456208     1.272207940       H   1  *****    0.148037
   34   H34        2.853367220    -4.735047608    -1.410910847       H   1  *****    0.141844
   35   C35       -4.597028135     2.152217798     0.120662456     C.3   1  *****   -0.611062
   36   C36       -5.175921368    -0.040612164    -0.817758104     C.3   1  *****   -0.597234
   37   C37        5.029115491    -0.316500019    -0.146917633     C.3   1  *****   -0.612858
   38   C38        4.405423445     1.775377887    -1.300566358     C.3   1  *****   -0.571920
   39   Nd39       0.084708667     1.010275511     0.066825235      Nd   1  *****    1.823977
   40   H40       -4.525862442    -2.084686447     1.199498709       H   1  *****    0.169863
   41   H41        4.036109934    -2.569024335    -1.713891294       H   1  *****    0.164901
   42   H42       -1.517614557    -5.804325185     0.546950957       H   1  *****    0.142301
   43   H43       -0.330335781    -5.013851328     1.572073888       H   1  *****    0.155673
   44   H44        0.860032440    -5.940222644    -0.335501297       H   1  *****    0.148224
   45   H45       -0.280436415    -5.246059088    -1.474606139       H   1  *****    0.146782
   46   H46       -4.055623581     2.600352305     0.950769636       H   1  *****    0.225963
   47   H47       -4.272086885     2.624581962    -0.812941601       H   1  *****    0.216842
   48   H48       -5.672311312     2.293189328     0.251682675       H   1  *****    0.207330
   49   H49       -4.830098516    -1.066880818    -0.914978828       H   1  *****    0.176788
   50   H50       -6.206373404    -0.039072603    -0.450237427       H   1  *****    0.192246
   51   H51       -5.148077513     0.424346633    -1.809281827       H   1  *****    0.228986
   52   H52        5.989776812    -0.476300983    -0.645487453       H   1  *****    0.190789
   53   H53        5.182630775     0.294458750     0.747898083       H   1  *****    0.232751
   54   H54        4.622813922    -1.271265868     0.177603381       H   1  *****    0.189646
   55   H55        5.489479527     1.893161106    -1.334622942       H   1  *****    0.196798
   56   H56        3.968974675     2.067664552    -2.254506729       H   1  *****    0.209447
   57   H57        3.974361730     2.412229193    -0.521590672       H   1  *****    0.221890


@<TRIPOS>BOND
    1      1      2    1
    2      1      6    2
    3      2      3    2
    4      3      4    1
    5      4      5    2
    6      5      6    1
    7      7      8    1
    8      7     12    2
    9      8      9    2
   10      9     10    1
   11     10     11    2
   12     11     12    1
   13      6      9    1
   14      4     13    1
   15     11     14    1
   16     13     15    2
   17     13     16    1
   18     14     17    1
   19     14     18    2
   20     19     20    2
   21     19     21    2
   22     19     22    1
   23     23     24    2
   24     23     25    2
   25     23     26    1
   26     27     28    2
   27     27     29    2
   28     27     30    1
   29     31     32    1
   30      1     31    1
   31      8     32    1
   32      2     33    1
   33      7     34    1
   34     16     35    1
   35     16     36    1
   36     17     37    1
   37     17     38    1
   38      5     39    1
   39     15     39    1
   40     10     39    1
   41     18     39    1
   42     29     39    1
   43     28     39    1
   44     21     39    1
   45     20     39    1
   46     25     39    1
   47     24     39    1
   48      3     40    1
   49     12     41    1
   50     31     42    1
   51     31     43    1
   52     32     44    1
   53     32     45    1
   54     35     46    1
   55     35     47    1
   56     35     48    1
   57     36     49    1
   58     36     50    1
   59     36     51    1
   60     37     52    1
   61     37     53    1
   62     37     54    1
   63     38     55    1
   64     38     56    1
   65     38     57    1
#
#	File Created by: Spartan '14 Export
#

@<TRIPOS>MOLECULE
*****
60 68
SMALL
USER_CHARGES


@<TRIPOS>ATOM
    1   C1        -1.153798781    -3.427183945     0.202101219     C.2   1  *****   -0.060698
    2   C2        -2.500456930    -3.562988563     0.507916227     C.2   1  *****   -0.024099
    3   C3        -3.276659053    -2.398982815     0.641111051     C.2   1  *****   -0.347104
    4   C4        -2.707994995    -1.133874696     0.443639088     C.2   1  *****    0.440407
    5   N5        -1.411774523    -1.012722765     0.154805913       N   1  *****   -0.471461
    6   C6        -0.704691006    -2.117638622     0.070390193     C.2   1  *****    0.228722
    7   C7         2.539287717    -3.523323806    -0.530976741     C.2   1  *****   -0.029984
    8   C8         1.185212279    -3.408887966    -0.250032989     C.2   1  *****   -0.056847
    9   C9         0.708684036    -2.106252553    -0.152332958     C.2   1  *****    0.210638
   10   N10        1.397885670    -0.990156077    -0.235170689       N   1  *****   -0.441431
   11   C11        2.703117681    -1.089874766    -0.489627535     C.2   1  *****    0.430170
   12   C12        3.296468377    -2.346992811    -0.665681518     C.2   1  *****   -0.340288
   13   C13       -3.302132126     0.240390821     0.663869499     C.2   1  *****    0.191222
   14   C14        3.283262714     0.295269826    -0.680440525     C.2   1  *****    0.177600
   15   O15       -2.521650399     1.112648227     1.057988893       O   1  *****   -0.392732
   16   N16       -4.613581200     0.480279035     0.468288323     N.3   1  *****    0.170579
   17   N17        4.593983732     0.541742934    -0.484119820     N.3   1  *****    0.178211
   18   O18        2.495701738     1.170207356    -1.053533189       O   1  *****   -0.390724
   19   N19        1.324069065     0.576586575     2.522283350       N   1  *****    0.869793
   20   O20        1.859878061     1.357717219     1.665156036       O   1  *****   -0.571568
   21   O21        0.148632625     0.164634195     2.231281856       O   1  *****   -0.596459
   22   O22        1.900104315     0.227387884     3.532328342       O   1  *****   -0.431817
   23   N23        0.003560936     4.095509027     0.155884069       N   1  *****    0.899696
   24   O24        0.637263748     3.448775940    -0.752630703       O   1  *****   -0.602805
   25   O25       -0.640070907     3.369358385     0.993561198       O   1  *****   -0.601561
   26   O26        0.012506699     5.302783079     0.216671601       O   1  *****   -0.411824
   27   N27       -1.339535279     0.758996550    -2.539482569       N   1  *****    0.871641
   28   O28       -1.878286773     1.475690700    -1.628469486       O   1  *****   -0.574070
   29   O29       -0.165672939     0.326090589    -2.274782297       O   1  *****   -0.602935
   30   O30       -1.910976203     0.488088298    -3.575446133       O   1  *****   -0.428486
   31   C31        0.026131405    -4.392899550    -0.009590457     C.3   1  *****    0.442670
   32   C32        0.281395593    -5.240457083     1.247013858     C.3   1  *****   -0.728908
   33   C33       -0.208389334    -5.296138603    -1.229862548     C.3   1  *****   -0.749907
   34   H34       -2.964322683    -4.532367271     0.664638068       H   1  *****    0.133473
   35   H35        3.025165630    -4.485926398    -0.660488303       H   1  *****    0.134244
   36   C36       -5.492434232    -0.334131066    -0.350852569     C.3   1  *****   -0.596971
   37   C37       -5.094908993     1.823928779     0.756649963     C.3   1  *****   -0.575538
   38   C38        5.476492157    -0.269986283     0.334273008     C.3   1  *****   -0.593767
   39   C39        5.064616627     1.892017735    -0.758487544     C.3   1  *****   -0.584748
   40   Nd40      -0.011806268     1.242575654     0.011975332      Nd   1  *****    1.847505
   41   H41       -4.318599679    -2.490398545     0.922550735       H   1  *****    0.175866
   42   H42        4.345381928    -2.424352655    -0.923985989       H   1  *****    0.175052
   43   H43        0.454126140    -4.611435055     2.123964399       H   1  *****    0.191976
   44   H44       -0.577627447    -5.886897158     1.450080690       H   1  *****    0.204092
   45   H45        1.156435842    -5.881510596     1.103698883       H   1  *****    0.202217
   46   H46       -0.394254598    -4.708374043    -2.132367342       H   1  *****    0.195689
   47   H47        0.664686062    -5.931678971    -1.405787053       H   1  *****    0.209885
   48   H48       -1.069046111    -5.950256818    -1.060745024       H   1  *****    0.206895
   49   H49       -5.901566522     0.283550240    -1.156818072       H   1  *****    0.221792
   50   H50       -4.947707300    -1.155475584    -0.811348433       H   1  *****    0.180810
   51   H51       -6.327157790    -0.732926687     0.236690482       H   1  *****    0.184434
   52   H52       -6.137467382     1.765083058     1.078772254       H   1  *****    0.194703
   53   H53       -4.482456790     2.265138914     1.539772100       H   1  *****    0.215066
   54   H54       -5.024631665     2.454457018    -0.136665521       H   1  *****    0.210118
   55   H55        5.889637051     0.352436921     1.134356843       H   1  *****    0.221352
   56   H56        4.933213312    -1.086874059     0.804222825       H   1  *****    0.181034
   57   H57        6.308451247    -0.673279962    -0.254267942       H   1  *****    0.182586
   58   H58        4.990475648     2.513429380     0.140903719       H   1  *****    0.212555
   59   H59        6.107451747     1.844318782    -1.081725888       H   1  *****    0.195873
   60   H60        4.448518361     2.336494327    -1.536857714       H   1  *****    0.218165


@<TRIPOS>BOND
    1      1      2    1
    2      1      6    2
    3      2      3    2
    4      3      4    1
    5      4      5    2
    6      5      6    1
    7      7      8    1
    8      7     12    2
    9      8      9    2
   10      9     10    1
   11     10     11    2
   12     11     12    1
   13      6      9    1
   14      4     13    1
   15     11     14    1
   16     13     15    2
   17     13     16    1
   18     14     17    1
   19     14     18    2
   20     19     20    2
   21     19     21    2
   22     19     22    1
   23     23     24    2
   24     23     25    2
   25     23     26    1
   26     27     28    2
   27     27     29    2
   28     27     30    1
   29     31     32    1
   30     31     33    1
   31      1     31    1
   32      8     31    1
   33      2     34    1
   34      7     35    1
   35     16     36    1
   36     16     37    1
   37     17     38    1
   38     17     39    1
   39      5     40    1
   40     15     40    1
   41     10     40    1
   42     18     40    1
   43     29     40    1
   44     28     40    1
   45     21     40    1
   46     20     40    1
   47     25     40    1
   48     24     40    1
   49      3     41    1
   50     12     42    1
   51     32     43    1
   52     32     44    1
   53     32     45    1
   54     33     46    1
   55     33     47    1
   56     33     48    1
   57     36     49    1
   58     36     50    1
   59     36     51    1
   60     37     52    1
   61     37     53    1
   62     37     54    1
   63     38     55    1
   64     38     56    1
   65     38     57    1
   66     39     58    1
   67     39     59    1
   68     39     60    1
#
#	File Created by: Spartan '14 Export
#

@<TRIPOS>MOLECULE
*****
53 61
SMALL
USER_CHARGES


@<TRIPOS>ATOM
    1   C1        -0.815904540    -3.738237624    -0.113115311     C.2   1  *****   -0.152867
    2   C2        -2.150956957    -4.000751005     0.142747857     C.2   1  *****    0.027427
    3   C3        -3.033191598    -2.906427492     0.177997324     C.2   1  *****   -0.342018
    4   C4        -2.560645314    -1.606966773    -0.039275114     C.2   1  *****    0.485849
    5   N5        -1.270212889    -1.369023442    -0.308146316       N   1  *****   -0.535928
    6   C6        -0.472815059    -2.407649402    -0.333701772     C.2   1  *****    0.315296
    7   C7         2.953082503    -3.494959508    -0.044413968     C.2   1  *****    0.039123
    8   C8         1.576935840    -3.503707713    -0.201697382     C.2   1  *****   -0.133611
    9   C9         0.966032521    -2.267396634    -0.384627011     C.2   1  *****    0.217917
   10   N10        1.543565394    -1.094824486    -0.405429113       N   1  *****   -0.404185
   11   C11        2.871302774    -1.069234577    -0.258628830     C.2   1  *****    0.385135
   12   C12        3.605132562    -2.249537970    -0.078884220     C.2   1  *****   -0.340643
   13   C13       -3.263959108    -0.294403886     0.224404870     C.2   1  *****    0.158407
   14   C14        3.317804210     0.371684762    -0.124450516     C.2   1  *****    0.260114
   15   O15       -2.565555478     0.580204489     0.755815740       O   1  *****   -0.423436
   16   N16       -4.558386124    -0.106312373    -0.071067643     N.3   1  *****    0.250116
   17   N17        4.566922411     0.760901309    -0.430996617     N.3   1  *****    0.205677
   18   O18        2.469587846     1.162801475     0.310536052       O   1  *****   -0.455645
   19   N19       -0.657292953     0.935485298    -2.731878354       N   1  *****    0.825575
   20   O20        0.520117902     0.815604099    -2.248760585       O   1  *****   -0.573556
   21   O21       -1.579715471     1.173555733    -1.878031973       O   1  *****   -0.562594
   22   O22       -0.886950950     0.814085501    -3.916741434       O   1  *****   -0.414563
   23   N23       -0.468662267     3.923284910     0.092160817       N   1  *****    0.883932
   24   O24       -1.383570302     3.132958597     0.507460255       O   1  *****   -0.569775
   25   O25        0.605360578     3.347294065    -0.314797173       O   1  *****   -0.585777
   26   O26       -0.600131346     5.125523261     0.080058614       O   1  *****   -0.418917
   27   N27        0.409487274     0.419047148     2.900101534       N   1  *****    0.825077
   28   O28        0.338317073     1.621801965     2.493390291       O   1  *****   -0.555802
   29   O29        0.182976380    -0.479634977     2.007011863       O   1  *****   -0.592018
   30   O30        0.672982199     0.124317647     4.045524302       O   1  *****   -0.401755
   31   C31        0.473754690    -4.536652632    -0.066552146     C.2   1  *****    0.434503
   32   O32        0.594632527    -5.728197713     0.084962060     O.2   1  *****   -0.379852
   33   H33       -2.505438286    -5.003621839     0.356718580       H   1  *****    0.144119
   34   H34        3.513333821    -4.405598716     0.140318801       H   1  *****    0.137839
   35   C35       -5.165355217     1.175674033     0.261142203     C.3   1  *****   -0.545824
   36   C36       -5.355854063    -0.980998620    -0.909569201     C.3   1  *****   -0.626438
   37   C37        5.515403795    -0.010764979    -1.212976232     C.3   1  *****   -0.601377
   38   C38        4.943602278     2.143563217    -0.167505322     C.3   1  *****   -0.574459
   39   Nd39      -0.124978901     1.082026012     0.126581448      Nd   1  *****    1.834823
   40   H40       -4.072765087    -3.071278650     0.433696643       H   1  *****    0.173633
   41   H41        4.673803806    -2.210945054     0.091149819       H   1  *****    0.174721
   42   H42       -4.487145802     1.734957912     0.901172345       H   1  *****    0.225538
   43   H43       -5.346238137     1.749778439    -0.653264843       H   1  *****    0.197408
   44   H44       -6.117882707     1.005791255     0.771878176       H   1  *****    0.177798
   45   H45       -5.784399564    -0.393225611    -1.726952308       H   1  *****    0.224275
   46   H46       -4.743997204    -1.766473843    -1.347762821       H   1  *****    0.184683
   47   H47       -6.177558343    -1.431209701    -0.341285660       H   1  *****    0.192236
   48   H48        5.926232001     0.632586813    -1.996385000       H   1  *****    0.218861
   49   H49        6.346378079    -0.372401953    -0.596353644       H   1  *****    0.186198
   50   H50        5.027984445    -0.853260366    -1.699915650       H   1  *****    0.185977
   51   H51        5.947122493     2.164241729     0.266342556       H   1  *****    0.192008
   52   H52        4.943574519     2.721386227    -1.097750997       H   1  *****    0.205524
   53   H53        4.226283721     2.584490056     0.520397648       H   1  *****    0.221254


@<TRIPOS>BOND
    1      1      2    1
    2      1      6    2
    3      2      3    2
    4      3      4    1
    5      4      5    2
    6      5      6    1
    7      7      8    1
    8      7     12    2
    9      8      9    2
   10      9     10    1
   11     10     11    2
   12     11     12    1
   13      6      9    1
   14      4     13    1
   15     11     14    1
   16     13     15    2
   17     13     16    1
   18     14     17    1
   19     14     18    2
   20     19     20    2
   21     19     21    2
   22     19     22    1
   23     23     24    2
   24     23     25    2
   25     23     26    1
   26     27     28    2
   27     27     29    2
   28     27     30    1
   29     31     32    2
   30      1     31    1
   31      8     31    1
   32      2     33    1
   33      7     34    1
   34     16     35    1
   35     16     36    1
   36     17     37    1
   37     17     38    1
   38      5     39    1
   39     15     39    1
   40     10     39    1
   41     18     39    1
   42     29     39    1
   43     28     39    1
   44     21     39    1
   45     20     39    1
   46     25     39    1
   47     24     39    1
   48      3     40    1
   49     12     41    1
   50     35     42    1
   51     35     43    1
   52     35     44    1
   53     36     45    1
   54     36     46    1
   55     36     47    1
   56     37     48    1
   57     37     49    1
   58     37     50    1
   59     38     51    1
   60     38     52    1
   61     38     53    1
#
#	File Created by: Spartan '14 Export
#

@<TRIPOS>MOLECULE
*****
52 60
SMALL
USER_CHARGES


@<TRIPOS>ATOM
    1   C1        -0.825498445    -3.735178524    -0.155639079     C.2   1  *****    0.209587
    2   C2        -2.122368429    -4.038084459     0.219367679     C.2   1  *****   -0.106071
    3   C3        -3.011241834    -2.953624287     0.271281210     C.2   1  *****   -0.336101
    4   C4        -2.592788761    -1.644602226    -0.031522164     C.2   1  *****    0.437316
    5   N5        -1.351415290    -1.392985508    -0.441162713       N   1  *****   -0.510636
    6   C6        -0.533139368    -2.419730522    -0.506199333     C.2   1  *****    0.232509
    7   C7         2.727209429    -3.719088648    -0.012049345     C.2   1  *****   -0.146649
    8   C8         1.370698603    -3.593426989    -0.259097212     C.2   1  *****    0.272289
    9   C9         0.879155769    -2.330300732    -0.572995321     C.2   1  *****    0.070384
   10   N10        1.558230069    -1.209176359    -0.580643417       N   1  *****   -0.315073
   11   C11        2.857564618    -1.288744182    -0.319242151     C.2   1  *****    0.290363
   12   C12        3.470805549    -2.529780253    -0.056292304     C.2   1  *****   -0.276114
   13   C13       -3.274848462    -0.341548795     0.317260732     C.2   1  *****    0.185855
   14   C14        3.392737630     0.113150395    -0.118865012     C.2   1  *****    0.283203
   15   O15       -2.533526034     0.550191502     0.753163549       O   1  *****   -0.425747
   16   N16       -4.602999048    -0.180177008     0.200893664     N.3   1  *****    0.233288
   17   N17        4.688339424     0.415137121    -0.322449803     N.3   1  *****    0.188295
   18   O18        2.572994294     0.955897680     0.269854896       O   1  *****   -0.470052
   19   N19        0.488356328     0.137063191     2.795392913       N   1  *****    0.835062
   20   O20        0.197268104    -0.695913627     1.858048046       O   1  *****   -0.592593
   21   O21        0.455629737     1.363556733     2.465056944       O   1  *****   -0.558398
   22   O22        0.773639824    -0.239361022     3.912052509       O   1  *****   -0.409721
   23   N23       -0.721911596     1.041974574    -2.751341292       N   1  *****    0.830304
   24   O24        0.443330793     0.739062403    -2.317852505       O   1  *****   -0.583950
   25   O25       -1.577293149     1.350270619    -1.852374130       O   1  *****   -0.564120
   26   O26       -0.999264689     1.019728066    -3.931520179       O   1  *****   -0.411930
   27   N27       -0.257802073     3.839694957     0.206322200       N   1  *****    0.891878
   28   O28       -1.192440401     3.082935679     0.637241190       O   1  *****   -0.565431
   29   O29        0.756228056     3.224825397    -0.291347023       O   1  *****   -0.586876
   30   O30       -0.316108084     5.046371298     0.259774128       O   1  *****   -0.422644
   31   O31        0.331645650    -4.485638759    -0.077005764     O.3   1  *****   -0.285450
   32   H32       -2.429263690    -5.029494541     0.531125229       H   1  *****    0.177931
   33   H33        3.190224255    -4.657645811     0.268659017       H   1  *****    0.180187
   34   C34       -5.188614670     1.080605541     0.633845591     C.3   1  *****   -0.551443
   35   C35       -5.478127112    -1.049587835    -0.561149231     C.3   1  *****   -0.614118
   36   C36        5.628460619    -0.409092430    -1.056779737     C.3   1  *****   -0.593366
   37   C37        5.145111649     1.759299394    -0.000300663     C.3   1  *****   -0.551516
   38   Nd38      -0.080593290     0.993131106     0.075510729      Nd   1  *****    1.839285
   39   H39       -4.018186505    -3.128993065     0.630275364       H   1  *****    0.179253
   40   H40        4.523389288    -2.575090405     0.194538860       H   1  *****    0.170750
   41   H41       -4.482227565     1.600121569     1.277109547       H   1  *****    0.219149
   42   H42       -5.408980264     1.713822238    -0.232147497       H   1  *****    0.200576
   43   H43       -6.117187565     0.878312754     1.175185853       H   1  *****    0.179636
   44   H44       -5.977308986    -0.463641335    -1.339928200       H   1  *****    0.218881
   45   H45       -4.913534629    -1.840887983    -1.049502940       H   1  *****    0.184036
   46   H46       -6.247759355    -1.492448671     0.080932988       H   1  *****    0.188589
   47   H47        6.094648965     0.196289884    -1.840674819       H   1  *****    0.214283
   48   H48        6.422041575    -0.790574616    -0.403693940       H   1  *****    0.183552
   49   H49        5.122571961    -1.242861768    -1.539729657       H   1  *****    0.183285
   50   H50        6.111046576     1.697675675     0.509098215       H   1  *****    0.184421
   51   H51        5.260549316     2.353330310    -0.913330972       H   1  *****    0.197605
   52   H52        4.410919194     2.240377396     0.641588078       H   1  *****    0.216252


@<TRIPOS>BOND
    1      1      2    1
    2      1      6    2
    3      2      3    2
    4      3      4    1
    5      4      5    2
    6      5      6    1
    7      7      8    1
    8      7     12    2
    9      8      9    2
   10      9     10    1
   11     10     11    2
   12     11     12    1
   13      6      9    1
   14      4     13    1
   15     11     14    1
   16     13     15    2
   17     13     16    1
   18     14     17    1
   19     14     18    2
   20     19     20    2
   21     19     21    2
   22     19     22    1
   23     23     24    2
   24     23     25    2
   25     23     26    1
   26     27     28    2
   27     27     29    2
   28     27     30    1
   29      1     31    1
   30      8     31    1
   31      2     32    1
   32      7     33    1
   33     16     34    1
   34     16     35    1
   35     17     36    1
   36     17     37    1
   37      5     38    1
   38     15     38    1
   39     10     38    1
   40     18     38    1
   41     29     38    1
   42     28     38    1
   43     21     38    1
   44     20     38    1
   45     25     38    1
   46     24     38    1
   47      3     39    1
   48     12     40    1
   49     34     41    1
   50     34     42    1
   51     34     43    1
   52     35     44    1
   53     35     45    1
   54     35     46    1
   55     36     47    1
   56     36     48    1
   57     36     49    1
   58     37     50    1
   59     37     51    1
   60     37     52    1
#
#	File Created by: Spartan '14 Export
#

@<TRIPOS>MOLECULE
*****
56 64
SMALL
USER_CHARGES


@<TRIPOS>ATOM
    1   C1        -1.152288357    -3.488036048     0.117811312     C.2   1  *****    0.036377
    2   C2        -2.506751399    -3.672513219     0.391488578     C.2   1  *****   -0.062505
    3   C3        -3.293910004    -2.521003796     0.523746280     C.2   1  *****   -0.354954
    4   C4        -2.755215829    -1.227824301     0.361731944     C.2   1  *****    0.434993
    5   N5        -1.459718859    -1.074306983     0.106270905       N   1  *****   -0.435775
    6   C6        -0.723558739    -2.156605792     0.023881493     C.2   1  *****    0.188892
    7   C7         2.445012986    -3.708211483    -0.461226043     C.2   1  *****   -0.072841
    8   C8         1.085200212    -3.504578234    -0.229331397     C.2   1  *****    0.053497
    9   C9         0.673852082    -2.167004757    -0.147579663     C.2   1  *****    0.168192
   10   N10        1.428432313    -1.095268488    -0.202857674       N   1  *****   -0.412573
   11   C11        2.728990780    -1.267875941    -0.414502566     C.2   1  *****    0.415006
   12   C12        3.252230739    -2.568404844    -0.569444553     C.2   1  *****   -0.343144
   13   C13       -3.374900943     0.134866300     0.588053724     C.2   1  *****    0.137917
   14   C14        3.383629013     0.086599852    -0.583438867     C.2   1  *****    0.162838
   15   O15       -2.601397524     1.040740604     0.912041575       O   1  *****   -0.382113
   16   N16       -4.705795762     0.332573622     0.473885796     N.3   1  *****    0.239987
   17   N17        4.711201759     0.256773249    -0.395519748     N.3   1  *****    0.195405
   18   O18        2.645530520     1.011776084    -0.930748259       O   1  *****   -0.384031
   19   N19        0.047026444     4.002031626     0.061046995       N   1  *****    0.895093
   20   O20       -0.692728002     3.307200199     0.845467966       O   1  *****   -0.597248
   21   O21        0.765568551     3.321726119    -0.754857727       O   1  *****   -0.593536
   22   O22        0.065177666     5.210043955     0.088547935       O   1  *****   -0.410064
   23   N23       -1.171040070     0.687021729    -2.623305262       N   1  *****    0.855811
   24   O24       -0.036138007     0.206690027    -2.272393109       O   1  *****   -0.598723
   25   O25       -1.740917545     1.432955587    -1.758180632       O   1  *****   -0.566802
   26   O26       -1.675148145     0.431135708    -3.696660151       O   1  *****   -0.421708
   27   N27        1.180182358     0.532522128     2.580559950       N   1  *****    0.842976
   28   O28        0.036945409     0.086523143     2.212761448       O   1  *****   -0.587214
   29   O29        1.754178387     1.317413522     1.753720298       O   1  *****   -0.559455
   30   O30        1.688917361     0.210917127     3.634291420       O   1  *****   -0.421770
   31   N31       -0.042310030    -4.310478024    -0.068769830     N.3   1  *****    0.025729
   32   C32       -0.048037262    -5.753475313     0.004688388     C.3   1  *****   -0.529739
   33   H33       -2.953835228    -4.651154867     0.528266672       H   1  *****    0.150322
   34   H34        2.884744768    -4.693563685    -0.571151002       H   1  *****    0.149318
   35   C35       -5.228778580     1.646586427     0.815106554     C.3   1  *****   -0.576976
   36   C36       -5.622323967    -0.548286480    -0.223481355     C.3   1  *****   -0.625432
   37   C37        5.557767698    -0.614797891     0.396643231     C.3   1  *****   -0.597272
   38   C38        5.261368195     1.575604220    -0.670715764     C.3   1  *****   -0.577915
   39   Nd39       0.001528223     1.154429407    -0.006553638      Nd   1  *****    1.826422
   40   H40       -4.337144025    -2.644916204     0.784152737       H   1  *****    0.179111
   41   H41        4.302228889    -2.705570088    -0.794818884       H   1  *****    0.176392
   42   H42        0.019540984    -6.107770100     1.038972596       H   1  *****    0.196514
   43   H43       -0.964444859    -6.140084427    -0.446510562       H   1  *****    0.196852
   44   H44        0.797447823    -6.147725329    -0.561303651       H   1  *****    0.200449
   45   H45       -4.517956841     2.155361760     1.462143510       H   1  *****    0.215174
   46   H46       -5.374739418     2.250049223    -0.087768413       H   1  *****    0.201091
   47   H47       -6.188572880     1.529561225     1.326377157       H   1  *****    0.186228
   48   H48       -6.237161075     0.048957168    -0.903671450       H   1  *****    0.223464
   49   H49       -5.083107858    -1.275863427    -0.827688431       H   1  *****    0.185329
   50   H50       -6.292818219    -1.071738681     0.469254336       H   1  *****    0.182411
   51   H51        6.019624063    -0.030493477     1.199415526       H   1  *****    0.217984
   52   H52        4.976631944    -1.407509290     0.862635831       H   1  *****    0.181688
   53   H53        6.358046183    -1.055652690    -0.209437565       H   1  *****    0.179878
   54   H54        5.273462544     2.186239368     0.239140861       H   1  *****    0.205925
   55   H55        6.283189009     1.463557248    -1.043044123       H   1  *****    0.189836
   56   H56        4.642555344     2.074441069    -1.413249616       H   1  *****    0.214690


@<TRIPOS>BOND
    1      1      2    1
    2      1      6    2
    3      2      3    2
    4      3      4    1
    5      4      5    2
    6      5      6    1
    7      7      8    1
    8      7     12    2
    9      8      9    2
   10      9     10    1
   11     10     11    2
   12     11     12    1
   13      6      9    1
   14      4     13    1
   15     11     14    1
   16     13     15    2
   17     13     16    1
   18     14     17    1
   19     14     18    2
   20     19     20    2
   21     19     21    2
   22     19     22    1
   23     23     24    2
   24     23     25    2
   25     23     26    1
   26     27     28    2
   27     27     29    2
   28     27     30    1
   29     31     32    1
   30      1     31    1
   31      8     31    1
   32      2     33    1
   33      7     34    1
   34     16     35    1
   35     16     36    1
   36     17     37    1
   37     17     38    1
   38      5     39    1
   39     15     39    1
   40     10     39    1
   41     18     39    1
   42     29     39    1
   43     28     39    1
   44     21     39    1
   45     20     39    1
   46     25     39    1
   47     24     39    1
   48      3     40    1
   49     12     41    1
   50     32     42    1
   51     32     43    1
   52     32     44    1
   53     35     45    1
   54     35     46    1
   55     35     47    1
   56     36     48    1
   57     36     49    1
   58     36     50    1
   59     37     51    1
   60     37     52    1
   61     37     53    1
   62     38     54    1
   63     38     55    1
   64     38     56    1
#
#	File Created by: Spartan '14 Export
#

@<TRIPOS>MOLECULE
*****
57 65
SMALL
USER_CHARGES


@<TRIPOS>ATOM
    1   C1        -1.470477179    -3.682550934    -0.251141220     C.2   1  *****    0.083872
    2   C2        -2.808508408    -3.590170953    -0.620482069     C.2   1  *****   -0.120362
    3   C3        -3.385491219    -2.346165381    -0.851457845     C.2   1  *****   -0.251867
    4   C4        -2.605579911    -1.206395366    -0.665373435     C.2   1  *****    0.372136
    5   N5        -1.314769015    -1.291309457    -0.346229771       N   1  *****   -0.464826
    6   C6        -0.748839135    -2.484150523    -0.172910539     C.2   1  *****    0.232320
    7   C7         2.730842582    -3.644254637     0.559435390     C.2   1  *****   -0.122441
    8   C8         1.390539154    -3.710124443     0.192372993     C.2   1  *****    0.089529
    9   C9         0.691514674    -2.498143157     0.119753224     C.2   1  *****    0.224099
   10   N10        1.280169742    -1.316821955     0.296551119       N   1  *****   -0.470949
   11   C11        2.573308880    -1.257458484     0.612142084     C.2   1  *****    0.382031
   12   C12        3.331939053    -2.412331437     0.792858910     C.2   1  *****   -0.254685
   13   C13       -3.018644281     0.219637387    -0.924426306     C.2   1  *****    0.252917
   14   C14        3.014191646     0.159615911     0.873513160     C.2   1  *****    0.245693
   15   O15       -2.154792359     0.958809327    -1.416531330       O   1  *****   -0.408873
   16   N16       -4.269344594     0.640174446    -0.660735833     N.3   1  *****    0.065602
   17   N17        4.270399576     0.557919361     0.601862080     N.3   1  *****    0.069440
   18   O18        2.167055139     0.912599962     1.373519866       O   1  *****   -0.404925
   19   N19        0.008234890     3.866384025     0.031094838       N   1  *****    0.884189
   20   O20       -0.413761744     3.196544699    -0.976851848       O   1  *****   -0.598117
   21   O21        0.428966351     3.163069432     1.016030664       O   1  *****   -0.597379
   22   O22        0.009122218     5.076169999     0.050768579       O   1  *****   -0.413016
   23   N23       -1.713012371     0.444588278     2.314709137       N   1  *****    0.883428
   24   O24       -2.092807423     1.202412905     1.351534620       O   1  *****   -0.567195
   25   O25       -0.516831719     0.022421156     2.236713583       O   1  *****   -0.581422
   26   O26       -2.463838926     0.135944213     3.219334291       O   1  *****   -0.441458
   27   N27        1.710621525     0.443011440    -2.350060300       N   1  *****    0.888469
   28   O28        2.090874036     1.200755456    -1.386703865       O   1  *****   -0.570828
   29   O29        0.512589899     0.026574969    -2.275682128       O   1  *****   -0.583256
   30   O30        2.463644214     0.129338279    -3.251440650       O   1  *****   -0.443217
   31   C31       -0.798461497    -4.972183927     0.137096447     C.3   1  *****   -0.295102
   32   C32        0.694272172    -4.985733061    -0.199076498     C.3   1  *****   -0.292763
   33   H33       -3.401490346    -4.493264539    -0.729917770       H   1  *****    0.147215
   34   H34        3.306879242    -4.558765497     0.664879825       H   1  *****    0.147198
   35   C35       -5.062758558     0.092088039     0.431940225     C.3   1  *****   -0.523136
   36   C36       -4.549811443     2.039532677    -0.958906448     C.3   1  *****   -0.562672
   37   C37        4.578227269     1.951735928     0.898697820     C.3   1  *****   -0.578238
   38   C38        5.048064774    -0.004319673    -0.494916351     C.3   1  *****   -0.526336
   39   Nd39       0.001502840     0.997099172    -0.014971969      Nd   1  *****    1.825158
   40   H40       -4.416926813    -2.263761855    -1.172704884       H   1  *****    0.163153
   41   H41        4.365405075    -2.350631782     1.112212028       H   1  *****    0.164176
   42   H42       -1.298240270    -5.822319040    -0.336158475       H   1  *****    0.142351
   43   H43       -0.924631818    -5.103078177     1.220915208       H   1  *****    0.144021
   44   H44        1.178033355    -5.846154656     0.272219851       H   1  *****    0.141351
   45   H45        0.818202730    -5.116568071    -1.283179357       H   1  *****    0.143404
   46   H46       -4.775504785    -0.932451825     0.653727008       H   1  *****    0.160539
   47   H47       -4.889996742     0.686467397     1.335907628       H   1  *****    0.204743
   48   H48       -6.123330628     0.118373485     0.169145037       H   1  *****    0.186728
   49   H49       -4.045276464     2.323860550    -1.879676050       H   1  *****    0.214479
   50   H50       -5.629668640     2.163368628    -1.064835021       H   1  *****    0.196272
   51   H51       -4.183561152     2.680740739    -0.149487440       H   1  *****    0.220305
   52   H52        5.660270344     2.054826589     1.005124092       H   1  *****    0.200664
   53   H53        4.225080885     2.598430924     0.087808393       H   1  *****    0.224140
   54   H54        4.078751801     2.247077271     1.818749373       H   1  *****    0.218357
   55   H55        4.745237324    -1.025487842    -0.711212829       H   1  *****    0.161091
   56   H56        4.877942049     0.589807183    -1.399612327       H   1  *****    0.205556
   57   H57        6.110677904     0.007635173    -0.239420084       H   1  *****    0.188437


@<TRIPOS>BOND
    1      1      2    1
    2      1      6    2
    3      2      3    2
    4      3      4    1
    5      4      5    2
    6      5      6    1
    7      7      8    1
    8      7     12    2
    9      8      9    2
   10      9     10    1
   11     10     11    2
   12     11     12    1
   13      6      9    1
   14      4     13    1
   15     11     14    1
   16     13     15    2
   17     13     16    1
   18     14     17    1
   19     14     18    2
   20     19     20    2
   21     19     21    2
   22     19     22    1
   23     23     24    2
   24     23     25    2
   25     23     26    1
   26     27     28    2
   27     27     29    2
   28     27     30    1
   29     31     32    1
   30      1     31    1
   31      8     32    1
   32      2     33    1
   33      7     34    1
   34     16     35    1
   35     16     36    1
   36     17     37    1
   37     17     38    1
   38      5     39    1
   39     15     39    1
   40     10     39    1
   41     18     39    1
   42     24     39    1
   43     29     39    1
   44     25     39    1
   45     28     39    1
   46     20     39    1
   47     21     39    1
   48      3     40    1
   49     12     41    1
   50     31     42    1
   51     31     43    1
   52     32     44    1
   53     32     45    1
   54     35     46    1
   55     35     47    1
   56     35     48    1
   57     36     49    1
   58     36     50    1
   59     36     51    1
   60     37     52    1
   61     37     53    1
   62     37     54    1
   63     38     55    1
   64     38     56    1
   65     38     57    1
#
#	File Created by: Spartan '14 Export
#

@<TRIPOS>MOLECULE
*****
65 73
SMALL
USER_CHARGES


@<TRIPOS>ATOM
    1   C1        -1.403304903    -3.276735223    -0.118061424     C.2   1  *****   -0.198913
    2   C2        -2.781157810    -3.211789133    -0.382370308     C.2   1  *****    0.454977
    3   C3        -3.386237260    -1.969037290    -0.585064041     C.2   1  *****   -0.446784
    4   C4        -2.600909405    -0.826422649    -0.466654639     C.2   1  *****    0.370411
    5   N5        -1.293624555    -0.879162007    -0.229309286       N   1  *****   -0.537548
    6   C6        -0.707709019    -2.072306472    -0.085976061     C.2   1  *****    0.309832
    7   C7         2.837687668    -3.169575201     0.430486876     C.2   1  *****    0.450595
    8   C8         1.461374549    -3.255447139     0.164244894     C.2   1  *****   -0.196027
    9   C9         0.748027661    -2.061517242     0.129922041     C.2   1  *****    0.305397
   10   N10        1.315924600    -0.859690731     0.272515375       N   1  *****   -0.534793
   11   C11        2.621761789    -0.786843198     0.512163912     C.2   1  *****    0.368679
   12   C12        3.423778945    -1.917586736     0.633128513     C.2   1  *****   -0.444671
   13   C13       -3.062040270     0.586819088    -0.717928917     C.2   1  *****    0.311576
   14   C14        3.060935859     0.633601068     0.763155504     C.2   1  *****    0.313779
   15   O15       -2.253292416     1.331513948    -1.286710195       O   1  *****   -0.418509
   16   N16       -4.298860296     0.987976128    -0.364300437     N.3   1  *****    0.049127
   17   N17        4.295073999     1.051208389     0.419062178     N.3   1  *****    0.047049
   18   O18        2.238165135     1.368237651     1.324949976       O   1  *****   -0.418902
   19   N19       -0.009927509     4.283258263    -0.023896974       N   1  *****    0.892932
   20   O20       -0.494904753     3.584136569    -0.981328256       O   1  *****   -0.604624
   21   O21        0.477332090     3.610966336     0.951922541       O   1  *****   -0.603550
   22   O22       -0.011658927     5.493688495    -0.039630666       O   1  *****   -0.417999
   23   N23       -1.614405051     0.926315970     2.430712270       N   1  *****    0.898570
   24   O24       -2.032745718     1.659103082     1.463436698       O   1  *****   -0.581981
   25   O25       -0.420642727     0.509116896     2.322493459       O   1  *****   -0.585039
   26   O26       -2.333922658     0.635875671     3.367582903       O   1  *****   -0.446916
   27   N27        1.611274805     0.919849303    -2.397998488       N   1  *****    0.894812
   28   O28        2.028209139     1.655595004    -1.432523771       O   1  *****   -0.579156
   29   O29        0.418312639     0.500147220    -2.288118012       O   1  *****   -0.582710
   30   O30        2.330831769     0.628992848    -3.334456009       O   1  *****   -0.445782
   31   C31       -0.703516689    -4.566381851     0.208448905     C.3   1  *****   -0.174471
   32   C32        0.780747220    -4.555642365    -0.161571703     C.3   1  *****   -0.165203
   33   O33       -3.431044724    -4.387460760    -0.420733152     O.3   1  *****   -0.224641
   34   C34       -4.824097667    -4.390576258    -0.689953800     C.3   1  *****   -0.392396
   35   O35        3.504839825    -4.335380809     0.471209240     O.3   1  *****   -0.226044
   36   C36        4.897706615    -4.318074944     0.740760530     C.3   1  *****   -0.386644
   37   C37       -4.985671131     0.454637006     0.805513811     C.3   1  *****   -0.507995
   38   C38       -4.627374162     2.377360619    -0.659065901     C.3   1  *****   -0.587243
   39   C39        4.603345881     2.444269992     0.718349447     C.3   1  *****   -0.581110
   40   C40        4.996160182     0.528887292    -0.747234781     C.3   1  *****   -0.517571
   41   Nd41      -0.003634499     1.412247618     0.013463386      Nd   1  *****    1.859624
   42   H42       -4.436219467    -1.880957218    -0.827604767       H   1  *****    0.182040
   43   H43        4.471931532    -1.813747505     0.877386706       H   1  *****    0.182448
   44   H44       -1.205451601    -5.402307502    -0.283082326       H   1  *****    0.107915
   45   H45       -0.811659651    -4.741408574     1.288138931       H   1  *****    0.123917
   46   H46        1.294811131    -5.383938964     0.330332129       H   1  *****    0.105990
   47   H47        0.891325985    -4.729431611    -1.241201535       H   1  *****    0.122460
   48   H48       -5.127679545    -5.436176612    -0.666354011       H   1  *****    0.198108
   49   H49       -5.375462891    -3.833204399     0.074911017       H   1  *****    0.168581
   50   H50       -5.037867188    -3.970578035    -1.678541482       H   1  *****    0.176038
   51   H51        5.216298327    -5.359228766     0.718538286       H   1  *****    0.196589
   52   H52        5.441218473    -3.753832988    -0.024687113       H   1  *****    0.167439
   53   H53        5.105309130    -3.893916438     1.728912679       H   1  *****    0.174748
   54   H54       -4.651216156    -0.554079073     1.033567050       H   1  *****    0.159798
   55   H55       -4.757528785     1.080635179     1.675166699       H   1  *****    0.201260
   56   H56       -6.064720141     0.445544697     0.629538573       H   1  *****    0.178392
   57   H57       -4.182741229     2.663571311    -1.609580070       H   1  *****    0.218078
   58   H58       -5.714236824     2.477783988    -0.703664587       H   1  *****    0.201325
   59   H59       -4.229362073     3.033456182     0.123104280       H   1  *****    0.226266
   60   H60        5.688577508     2.559273678     0.766753526       H   1  *****    0.199830
   61   H61        4.199095334     3.097677604    -0.062880687       H   1  *****    0.225078
   62   H62        4.151820111     2.721640241     1.668232917       H   1  *****    0.216472
   63   H63        4.674005622    -0.482469031    -0.981268171       H   1  *****    0.162722
   64   H64        4.767194478     1.155143552    -1.616463199       H   1  *****    0.203681
   65   H65        6.074027696     0.530960105    -0.563806894       H   1  *****    0.180693


@<TRIPOS>BOND
    1      1      2    1
    2      1      6    2
    3      2      3    2
    4      3      4    1
    5      4      5    2
    6      5      6    1
    7      7      8    1
    8      7     12    2
    9      8      9    2
   10      9     10    1
   11     10     11    2
   12     11     12    1
   13      6      9    1
   14      4     13    1
   15     11     14    1
   16     13     15    2
   17     13     16    1
   18     14     17    1
   19     14     18    2
   20     19     20    2
   21     19     21    2
   22     19     22    1
   23     23     24    2
   24     23     25    2
   25     23     26    1
   26     27     28    2
   27     27     29    2
   28     27     30    1
   29     31     32    1
   30      1     31    1
   31      8     32    1
   32     33     34    1
   33      2     33    1
   34     35     36    1
   35      7     35    1
   36     16     37    1
   37     16     38    1
   38     17     39    1
   39     17     40    1
   40      5     41    1
   41     15     41    1
   42     10     41    1
   43     18     41    1
   44     24     41    1
   45     29     41    1
   46     25     41    1
   47     28     41    1
   48     20     41    1
   49     21     41    1
   50      3     42    1
   51     12     43    1
   52     31     44    1
   53     31     45    1
   54     32     46    1
   55     32     47    1
   56     34     48    1
   57     34     49    1
   58     34     50    1
   59     36     51    1
   60     36     52    1
   61     36     53    1
   62     37     54    1
   63     37     55    1
   64     37     56    1
   65     38     57    1
   66     38     58    1
   67     38     59    1
   68     39     60    1
   69     39     61    1
   70     39     62    1
   71     40     63    1
   72     40     64    1
   73     40     65    1
#
#	File Created by: Spartan '14 Export
#

@<TRIPOS>MOLECULE
*****
57 65
SMALL
USER_CHARGES


@<TRIPOS>ATOM
    1   C1         1.880632238    -3.051889425    -0.225372872     C.2   1  *****   -0.058031
    2   C2         1.010856234    -4.073564396    -0.605316660     C.2   1  *****    0.173254
    3   C3        -0.318572522    -3.806314358    -0.929114987     C.2   1  *****   -0.355454
    4   C4        -0.764952354    -2.494539128    -0.823427898     C.2   1  *****    0.416475
    5   N5         0.059363347    -1.503619145    -0.490612428       N   1  *****   -0.581533
    6   C6         1.332994053    -1.762690786    -0.219688229     C.2   1  *****    0.362881
    7   C7         4.261158128     0.470808729     0.407536076     C.2   1  *****    0.129377
    8   C8         3.565570297    -0.714648235     0.169310692     C.2   1  *****    0.030058
    9   C9         2.174067406    -0.588241775     0.066822238     C.2   1  *****    0.150480
   10   N10        1.531164754     0.570349313     0.145878160       N   1  *****   -0.348042
   11   C11        2.216322165     1.694498651     0.319745987     C.2   1  *****    0.371540
   12   C12        3.596422942     1.690923672     0.494122617     C.2   1  *****   -0.335412
   13   C13       -2.136262505    -1.959518501    -1.154118633     C.2   1  *****    0.281124
   14   C14        1.303294251     2.889724140     0.395732224     C.2   1  *****    0.239352
   15   O15       -2.172021169    -0.800630272    -1.607661736       O   1  *****   -0.495075
   16   N16       -3.243447039    -2.687320981    -0.981695283     N.3   1  *****    0.152201
   17   N17        1.674787253     4.089776015    -0.070101345     N.3   1  *****    0.183249
   18   O18        0.190083110     2.700191397     0.917095939       O   1  *****   -0.459867
   19   N19       -3.722102190     1.624265005     1.160622723       N   1  *****    0.888726
   20   O20       -3.644346332     0.970537290     0.062565830       O   1  *****   -0.553430
   21   O21       -2.595994177     1.942983916     1.684729095       O   1  *****   -0.580339
   22   O22       -4.779462809     1.917909110     1.669494454       O   1  *****   -0.426455
   23   N23       -1.179414228    -1.147475112     2.245538313       N   1  *****    0.901033
   24   O24       -0.311028512    -0.221303241     2.158881223       O   1  *****   -0.592350
   25   O25       -2.123682381    -1.100727393     1.380540479       O   1  *****   -0.573384
   26   O26       -1.107278996    -2.038440447     3.068632994       O   1  *****   -0.446644
   27   N27       -0.653588619     2.769774078    -2.052863420       N   1  *****    0.972124
   28   O28        0.058587027     1.712032457    -1.920445732       O   1  *****   -0.648649
   29   O29       -1.713078829     2.815650661    -1.358153108       O   1  *****   -0.590039
   30   O30       -0.303048386     3.687455438    -2.777427946       O   1  *****   -0.465385
   31   C31        3.293668263    -3.239396390     0.248404239     C.3   1  *****   -0.211875
   32   C32        4.207462681    -2.051953721    -0.072691262     C.3   1  *****   -0.237372
   33   Cl33       1.564960116    -5.720716602    -0.681227273      Cl   1  *****   -0.059418
   34   Cl34       5.993625536     0.457208804     0.571345132      Cl   1  *****   -0.059863
   35   C35       -3.355714612    -3.779912816    -0.025023938     C.3   1  *****   -0.592156
   36   C36       -4.499626378    -2.043219966    -1.364545763     C.3   1  *****   -0.568182
   37   C37        0.735977774     5.196848480     0.092908661     C.3   1  *****   -0.625766
   38   C38        2.678066513     4.292517958    -1.105387341     C.3   1  *****   -0.617360
   39   Nd39      -1.197800541     0.824860402     0.062043857      Nd   1  *****    1.836394
   40   H40       -0.972405438    -4.607437031    -1.248616847       H   1  *****    0.184851
   41   H41        4.148224094     2.601032277     0.691254035       H   1  *****    0.186499
   42   H42        3.721805487    -4.151709832    -0.171045352       H   1  *****    0.119855
   43   H43        3.260329669    -3.389424917     1.336248286       H   1  *****    0.135253
   44   H44        5.130467558    -2.140878233     0.504253302       H   1  *****    0.125477
   45   H45        4.507154959    -2.091832834    -1.129287504       H   1  *****    0.129557
   46   H46       -2.421930356    -3.927327098     0.512283403       H   1  *****    0.186228
   47   H47       -4.110542634    -3.510502247     0.718337560       H   1  *****    0.233974
   48   H48       -3.657762608    -4.707921217    -0.520745469       H   1  *****    0.183446
   49   H49       -4.398751882    -1.606282411    -2.357226834       H   1  *****    0.209271
   50   H50       -5.285642678    -2.799504567    -1.370555663       H   1  *****    0.198068
   51   H51       -4.743273303    -1.239743566    -0.661739202       H   1  *****    0.219896
   52   H52        1.307005970     6.124733235     0.172335665       H   1  *****    0.213767
   53   H53        0.065399671     5.252197481    -0.770991499       H   1  *****    0.217742
   54   H54        0.144931749     5.039528547     0.992157515       H   1  *****    0.229932
   55   H55        3.215236469     3.371757322    -1.317851366       H   1  *****    0.183224
   56   H56        2.167439681     4.600814563    -2.023421264       H   1  *****    0.240298
   57   H57        3.387715920     5.069277528    -0.805465847       H   1  *****    0.196476


@<TRIPOS>BOND
    1      1      2    1
    2      1      6    2
    3      2      3    2
    4      3      4    1
    5      4      5    2
    6      5      6    1
    7      7      8    1
    8      7     12    2
    9      8      9    2
   10      9     10    1
   11     10     11    2
   12     11     12    1
   13      6      9    1
   14      4     13    1
   15     11     14    1
   16     13     15    2
   17     13     16    1
   18     14     17    1
   19     14     18    2
   20     19     20    2
   21     19     21    2
   22     19     22    1
   23     23     24    2
   24     23     25    2
   25     23     26    1
   26     27     28    2
   27     27     29    2
   28     27     30    1
   29     31     32    1
   30      1     31    1
   31      8     32    1
   32      2     33    1
   33      7     34    1
   34     16     35    1
   35     16     36    1
   36     17     37    1
   37     17     38    1
   38      5     39    1
   39     15     39    1
   40     10     39    1
   41     18     39    1
   42     24     39    1
   43     29     39    1
   44     25     39    1
   45     28     39    1
   46     20     39    1
   47     21     39    1
   48      3     40    1
   49     12     41    1
   50     31     42    1
   51     31     43    1
   52     32     44    1
   53     32     45    1
   54     35     46    1
   55     35     47    1
   56     35     48    1
   57     36     49    1
   58     36     50    1
   59     36     51    1
   60     37     52    1
   61     37     53    1
   62     37     54    1
   63     38     55    1
   64     38     56    1
   65     38     57    1
#
#	File Created by: Spartan '14 Export
#

@<TRIPOS>MOLECULE
*****
57 65
SMALL
USER_CHARGES


@<TRIPOS>ATOM
    1   C1        -1.339869259    -3.508976220    -0.186614899     C.2   1  *****   -0.103370
    2   C2        -2.689558677    -3.442223386    -0.506435573     C.2   1  *****    0.367755
    3   C3        -3.339791618    -2.235855937    -0.713922145     C.2   1  *****   -0.419198
    4   C4        -2.593327982    -1.073358649    -0.546655354     C.2   1  *****    0.390377
    5   N5        -1.291511849    -1.107254030    -0.263250123       N   1  *****   -0.508772
    6   C6        -0.677476222    -2.280043637    -0.113918811     C.2   1  *****    0.271893
    7   C7         2.845301433    -3.297123952     0.505487451     C.2   1  *****    0.377544
    8   C8         1.500176125    -3.433820505     0.189487050     C.2   1  *****   -0.107437
    9   C9         0.769239603    -2.242699764     0.144772074     C.2   1  *****    0.269263
   10   N10        1.317015145    -1.040705671     0.315567386       N   1  *****   -0.481349
   11   C11        2.616383760    -0.937885425     0.592791745     C.2   1  *****    0.363213
   12   C12        3.427499225    -2.059863468     0.734610876     C.2   1  *****   -0.424709
   13   C13       -3.069954427     0.335609810    -0.797321264     C.2   1  *****    0.289777
   14   C14        3.019592237     0.491388089     0.858133393     C.2   1  *****    0.314554
   15   O15       -2.254211617     1.092840443    -1.339746979       O   1  *****   -0.414885
   16   N16       -4.317271174     0.714445707    -0.469512156     N.3   1  *****    0.061884
   17   N17        4.268887023     0.916645418     0.602457643     N.3   1  *****    0.073334
   18   O18        2.152588163     1.220594210     1.357754064       O   1  *****   -0.427265
   19   N19       -0.046216002     4.088953740    -0.161699551       N   1  *****    0.885231
   20   O20       -0.495502795     3.349968885    -1.106849081       O   1  *****   -0.597359
   21   O21        0.412252251     3.455210486     0.854713852       O   1  *****   -0.599507
   22   O22       -0.053248615     5.296790398    -0.222425240       O   1  *****   -0.410087
   23   N23       -1.684441340     0.707624293     2.370983590       N   1  *****    0.896410
   24   O24       -0.485474947     0.297778779     2.279546609       O   1  *****   -0.586635
   25   O25       -2.088943138     1.445949837     1.402097485       O   1  *****   -0.580550
   26   O26       -2.417686483     0.404420393     3.291918154       O   1  *****   -0.441532
   27   N27        1.635639907     0.607070249    -2.353892308       N   1  *****    0.876671
   28   O28        0.432945325     0.208335124    -2.250343902       O   1  *****   -0.574836
   29   O29        2.038431441     1.387904842    -1.418628424       O   1  *****   -0.569607
   30   O30        2.371408898     0.254695328    -3.254253076       O   1  *****   -0.439180
   31   C31       -0.630358974    -4.789822834     0.153252276     C.3   1  *****   -0.214842
   32   C32        0.862886426    -4.744577923    -0.178688724     C.3   1  *****   -0.225564
   33   F33       -3.380193105    -4.577807062    -0.623144310       F   1  *****   -0.156644
   34   F34        3.599953912    -4.393864307     0.594787337       F   1  *****   -0.157929
   35   C35       -5.046138834     0.135726922     0.652128681     C.3   1  *****   -0.522970
   36   C36       -4.660804500     2.103578989    -0.749413409     C.3   1  *****   -0.576461
   37   C37        4.559956704     2.303432786     0.944146475     C.3   1  *****   -0.578468
   38   C38        5.084486607     0.377003669    -0.477027134     C.3   1  *****   -0.543528
   39   Nd39      -0.031387879     1.226641554    -0.011126992      Nd   1  *****    1.835480
   40   H40       -4.385062966    -2.220959188    -0.995210470       H   1  *****    0.210237
   41   H41        4.472403520    -1.991282465     1.008340074       H   1  *****    0.212207
   42   H42       -1.103348039    -5.632317968    -0.356069851       H   1  *****    0.135541
   43   H43       -0.761343434    -4.969186839     1.229113019       H   1  *****    0.136973
   44   H44        1.382837082    -5.570696346     0.311304974       H   1  *****    0.137329
   45   H45        1.002494035    -4.891244995    -1.258414303       H   1  *****    0.140320
   46   H46       -4.712821165    -0.877544945     0.861187513       H   1  *****    0.162283
   47   H47       -4.862480255     0.736384083     1.549793702       H   1  *****    0.204898
   48   H48       -6.116117436     0.121616302     0.430079546       H   1  *****    0.190176
   49   H49       -4.301898016     2.748963851     0.059915717       H   1  *****    0.223571
   50   H50       -4.188488223     2.415871056    -1.678063196       H   1  *****    0.218001
   51   H51       -5.746869190     2.185619295    -0.830178305       H   1  *****    0.202178
   52   H52        4.063351930     2.560697262     1.877236215       H   1  *****    0.215995
   53   H53        5.641158245     2.416661487     1.047380645       H   1  *****    0.203979
   54   H54        4.193638389     2.973655328     0.158724609       H   1  *****    0.221665
   55   H55        6.115459584     0.231607396    -0.141666610       H   1  *****    0.186304
   56   H56        4.683685611    -0.565146702    -0.842206567       H   1  *****    0.173324
   57   H57        5.070819835     1.079319967    -1.316947292       H   1  *****    0.214316


@<TRIPOS>BOND
    1      1      2    1
    2      1      6    2
    3      2      3    2
    4      3      4    1
    5      4      5    2
    6      5      6    1
    7      7      8    1
    8      7     12    2
    9      8      9    2
   10      9     10    1
   11     10     11    2
   12     11     12    1
   13      6      9    1
   14      4     13    1
   15     11     14    1
   16     13     15    2
   17     13     16    1
   18     14     17    1
   19     14     18    2
   20     19     20    2
   21     19     21    2
   22     19     22    1
   23     23     24    2
   24     23     25    2
   25     23     26    1
   26     27     28    2
   27     27     29    2
   28     27     30    1
   29     31     32    1
   30      1     31    1
   31      8     32    1
   32      2     33    1
   33      7     34    1
   34     16     35    1
   35     16     36    1
   36     17     37    1
   37     17     38    1
   38      5     39    1
   39     15     39    1
   40     10     39    1
   41     18     39    1
   42     24     39    1
   43     29     39    1
   44     25     39    1
   45     28     39    1
   46     20     39    1
   47     21     39    1
   48      3     40    1
   49     12     41    1
   50     31     42    1
   51     31     43    1
   52     32     44    1
   53     32     45    1
   54     35     46    1
   55     35     47    1
   56     35     48    1
   57     36     49    1
   58     36     50    1
   59     36     51    1
   60     37     52    1
   61     37     53    1
   62     37     54    1
   63     38     55    1
   64     38     56    1
   65     38     57    1
#
#	File Created by: Spartan '14 Export
#

@<TRIPOS>MOLECULE
*****
71 79
SMALL
USER_CHARGES


@<TRIPOS>ATOM
    1   C1         2.783813199     1.799795611     0.117278729     C.2   1  *****   -0.031787
    2   C2         2.529224010     3.134104811     0.457937524     C.2   1  *****    0.135234
    3   C3         1.207978454     3.545419020     0.637305381     C.2   1  *****   -0.339290
    4   C4         0.176768451     2.625038476     0.481163380     C.2   1  *****    0.362545
    5   N5         0.423078912     1.353636594     0.180663648       N   1  *****   -0.568043
    6   C6         1.677521229     0.950960110    -0.006379065     C.2   1  *****    0.363095
    7   C7         3.184998644    -2.374425322    -0.870955130     C.2   1  *****    0.087147
    8   C8         3.092268170    -0.990528344    -0.678984804     C.2   1  *****    0.094421
    9   C9         1.854189242    -0.483404548    -0.272865914     C.2   1  *****    0.145810
   10   N10        0.774077582    -1.237321043    -0.098651014       N   1  *****   -0.341367
   11   C11        0.870806109    -2.554049621    -0.230878686     C.2   1  *****    0.349141
   12   C12        2.062891764    -3.162757152    -0.615463390     C.2   1  *****   -0.365916
   13   C13       -1.286818476     2.831915392     0.768120789     C.2   1  *****    0.340173
   14   C14       -0.465766833    -3.218179829    -0.050787843     C.2   1  *****    0.255910
   15   O15       -1.868504669     1.884522242     1.329466801       O   1  *****   -0.510614
   16   N16       -1.924564697     3.963293090     0.448741228     N.3   1  *****    0.122260
   17   N17       -0.589510298    -4.397244742     0.574205666     N.3   1  *****    0.182487
   18   O18       -1.449177314    -2.614433452    -0.515253031       O   1  *****   -0.468367
   19   N19       -4.439372302     0.035025928    -1.105106617       N   1  *****    0.883391
   20   O20       -4.030173216     0.775985346    -0.146427869       O   1  *****   -0.550962
   21   O21       -3.600120446    -0.845261226    -1.511150486       O   1  *****   -0.586165
   22   O22       -5.539035340     0.155905244    -1.597285267       O   1  *****   -0.429993
   23   N23       -0.960021158     1.191227892    -2.509798895       N   1  *****    0.897369
   24   O24       -1.766329125     1.721571691    -1.668798346       O   1  *****   -0.573747
   25   O25       -0.606250167    -0.005421283    -2.254259853       O   1  *****   -0.597540
   26   O26       -0.542500054     1.802791209    -3.473753403       O   1  *****   -0.449902
   27   N27       -2.100760830    -1.826686103     2.356096194       N   1  *****    0.967289
   28   O28       -3.098002872    -1.459409295     1.664680595       O   1  *****   -0.591105
   29   O29       -0.988254475    -1.254636339     2.083490841       O   1  *****   -0.648761
   30   O30       -2.176087513    -2.698992130     3.207963901       O   1  *****   -0.469261
   31   C31        4.160696578     1.208077488    -0.033018863     C.3   1  *****   -0.269596
   32   C32        4.195461668    -0.007536812    -0.966047067     C.3   1  *****   -0.448389
   33   C33        3.650775519     4.118227623     0.640887622     C.3   1  *****   -0.023172
   34   O34        4.516455599     3.651338153     1.646522569     O.3   1  *****   -0.225276
   35   C35        5.615001860     4.508458827     1.848035102     C.3   1  *****   -0.414083
   36   C36        4.453915461    -3.016399867    -1.363512741     C.3   1  *****    0.022244
   37   O37        5.481571975    -2.809330226    -0.420710424     O.3   1  *****   -0.222373
   38   C38        6.695339573    -3.405490891    -0.816010461     C.3   1  *****   -0.395017
   39   C39       -1.490012969     4.852397958    -0.617700114     C.3   1  *****   -0.590673
   40   C40       -3.351876015     4.006665664     0.763373077     C.3   1  *****   -0.562371
   41   C41       -1.930838560    -4.961411851     0.697348942     C.3   1  *****   -0.629232
   42   C42        0.378575332    -4.913760731     1.528113552     C.3   1  *****   -0.617969
   43   Nd43      -1.776506009    -0.206336941    -0.049227073      Nd   1  *****    1.846833
   44   H44        0.993748732     4.567679822     0.929109095       H   1  *****    0.162886
   45   H45        2.114049152    -4.238029171    -0.748328720       H   1  *****    0.171077
   46   H46        4.517472807     0.922155190     0.964328309       H   1  *****    0.156938
   47   H47        4.866584788     1.962915687    -0.388372740       H   1  *****    0.172710
   48   H48        4.084613802     0.332490604    -2.005932032       H   1  *****    0.174246
   49   H49        5.165138283    -0.500246498    -0.886926078       H   1  *****    0.194121
   50   H50        3.244461506     5.107018938     0.904056989       H   1  *****    0.101257
   51   H51        4.198957022     4.241995857    -0.310209588       H   1  *****    0.082788
   52   H52        6.222074274     4.612603957     0.935752326       H   1  *****    0.145707
   53   H53        5.292254025     5.510975431     2.165115223       H   1  *****    0.159425
   54   H54        6.226293444     4.065893140     2.635769551       H   1  *****    0.193803
   55   H55        4.738050210    -2.588321228    -2.339805217       H   1  *****    0.076284
   56   H56        4.289821236    -4.093116802    -1.523797622       H   1  *****    0.091171
   57   H57        7.062594224    -2.990953671    -1.766966762       H   1  *****    0.142026
   58   H58        7.423917433    -3.199156229    -0.030639661       H   1  *****    0.186963
   59   H59        6.589763612    -4.494193832    -0.930867211       H   1  *****    0.150650
   60   H60       -1.582319230     5.895187584    -0.301008197       H   1  *****    0.190052
   61   H61       -0.460382527     4.647939716    -0.899504898       H   1  *****    0.173910
   62   H62       -2.113116170     4.682103816    -1.501286651       H   1  *****    0.229131
   63   H63       -3.698423577     5.033703438     0.640463682       H   1  *****    0.197514
   64   H64       -3.908356639     3.331878038     0.105016402       H   1  *****    0.221283
   65   H65       -3.507044990     3.680202205     1.790608294       H   1  *****    0.207400
   66   H66       -2.532243529    -4.650522274    -0.153847722       H   1  *****    0.227983
   67   H67       -1.849069229    -6.050618539     0.724452279       H   1  *****    0.210991
   68   H68       -2.404074836    -4.603288497     1.618010988       H   1  *****    0.222013
   69   H69        1.312162411    -4.358681833     1.477221322       H   1  *****    0.198554
   70   H70       -0.029756792    -4.803558549     2.538541348       H   1  *****    0.230179
   71   H71        0.575166480    -5.972407923     1.334284627       H   1  *****    0.194564


@<TRIPOS>BOND
    1      1      2    1
    2      1      6    2
    3      2      3    2
    4      3      4    1
    5      4      5    2
    6      5      6    1
    7      7      8    1
    8      7     12    2
    9      8      9    2
   10      9     10    1
   11     10     11    2
   12     11     12    1
   13      6      9    1
   14      4     13    1
   15     11     14    1
   16     13     15    2
   17     13     16    1
   18     14     17    1
   19     14     18    2
   20     19     20    2
   21     19     21    2
   22     19     22    1
   23     23     24    2
   24     23     25    2
   25     23     26    1
   26     27     28    2
   27     27     29    2
   28     27     30    1
   29     31     32    1
   30      1     31    1
   31      8     32    1
   32     33     34    1
   33     34     35    1
   34      2     33    1
   35     36     37    1
   36     37     38    1
   37      7     36    1
   38     16     39    1
   39     16     40    1
   40     17     41    1
   41     17     42    1
   42      5     43    1
   43     15     43    1
   44     10     43    1
   45     18     43    1
   46     24     43    1
   47     29     43    1
   48     25     43    1
   49     28     43    1
   50     20     43    1
   51     21     43    1
   52      3     44    1
   53     12     45    1
   54     31     46    1
   55     31     47    1
   56     32     48    1
   57     32     49    1
   58     33     50    1
   59     33     51    1
   60     35     52    1
   61     35     53    1
   62     35     54    1
   63     36     55    1
   64     36     56    1
   65     38     57    1
   66     38     58    1
   67     38     59    1
   68     39     60    1
   69     39     61    1
   70     39     62    1
   71     40     63    1
   72     40     64    1
   73     40     65    1
   74     41     66    1
   75     41     67    1
   76     41     68    1
   77     42     69    1
   78     42     70    1
   79     42     71    1
#
#	File Created by: Spartan '14 Export
#

@<TRIPOS>MOLECULE
*****
61 69
SMALL
USER_CHARGES


@<TRIPOS>ATOM
    1   C1        -1.985483431    -2.691707493    -0.412972152     C.2   1  *****    0.070061
    2   C2        -3.293344532    -2.277324268    -0.661262675     C.2   1  *****   -0.001854
    3   C3        -3.677388879    -0.947503486    -0.556100362     C.2   1  *****   -0.346986
    4   C4        -2.705195486    -0.011805490    -0.228995023     C.2   1  *****    0.472658
    5   N5        -1.437006021    -0.372438103    -0.038309132       N   1  *****   -0.500360
    6   C6        -1.086231328    -1.652894479    -0.109640075     C.2   1  *****    0.247181
    7   C7         2.121504753    -3.398981884     0.658978155     C.2   1  *****    0.014822
    8   C8         0.756449044    -3.259249579     0.413388698     C.2   1  *****    0.046717
    9   C9         0.343954622    -1.949796099     0.106250653     C.2   1  *****    0.281313
   10   N10        1.175296967    -0.914509259     0.036091937       N   1  *****   -0.542415
   11   C11        2.481599004    -1.087151563     0.229433510     C.2   1  *****    0.514658
   12   C12        3.003381691    -2.332512047     0.552600613     C.2   1  *****   -0.373969
   13   C13       -2.901048370     1.483321552    -0.228310666     C.2   1  *****    0.269285
   14   C14        3.253935805     0.207273115     0.243239360     C.2   1  *****    0.263338
   15   O15       -1.976687724     2.163677415    -0.698483988       O   1  *****   -0.470168
   16   N16       -4.046331961     2.028171711     0.202514155     N.3   1  *****    0.155488
   17   N17        4.513736942     0.260944813    -0.208460802     N.3   1  *****    0.147877
   18   O18        2.681707292     1.186342088     0.746248101       O   1  *****   -0.472460
   19   N19        0.915054689     4.423118737     0.027189873       N   1  *****    0.887066
   20   O20        0.646988242     3.777097119    -1.048099821       O   1  *****   -0.601829
   21   O21        0.912066420     3.720968052     1.100584664       O   1  *****   -0.599891
   22   O22        1.152876305     5.608094316     0.028746692       O   1  *****   -0.403527
   23   N23       -0.777276866     0.969850901     2.692492254       N   1  *****    0.882008
   24   O24       -1.345981935     1.806534961     1.911402779       O   1  *****   -0.571382
   25   O25        0.327515041     0.493239767     2.270214371       O   1  *****   -0.576455
   26   O26       -1.269323961     0.635236774     3.751607719       O   1  *****   -0.442823
   27   N27        1.124516107     0.650696436    -2.675529672       N   1  *****    0.894693
   28   O28        1.988766527     1.146935836    -1.875971592       O   1  *****   -0.571751
   29   O29       -0.079688014     0.664520463    -2.255259005       O   1  *****   -0.581110
   30   O30        1.432909412     0.177823301    -3.751198972       O   1  *****   -0.446814
   31   C31       -1.451299602    -4.094184650    -0.480335056     C.3   1  *****   -0.365024
   32   C32       -0.291578809    -4.332338302     0.489031306     C.3   1  *****   -0.340163
   33   N33       -4.341772710    -3.226725037    -1.070832306       N   1  *****    0.742300
   34   O34       -3.987103931    -4.255501134    -1.631074824     O.2   1  *****   -0.395313
   35   O35       -5.499270548    -2.908178002    -0.838366203     O.2   1  *****   -0.382112
   36   N36        2.704486257    -4.687828215     1.066488001       N   1  *****    0.742469
   37   O37        3.887232506    -4.865718175     0.812240743     O.2   1  *****   -0.382702
   38   O38        1.974754751    -5.481465230     1.645978247     O.2   1  *****   -0.396310
   39   C39       -4.953087702     1.396437635     1.148023212     C.3   1  *****   -0.611618
   40   C40       -4.170195812     3.477094497     0.100877644     C.3   1  *****   -0.601093
   41   C41        5.202787563     1.540813320    -0.100201247     C.3   1  *****   -0.594597
   42   C42        5.058345398    -0.645460497    -1.207615563     C.3   1  *****   -0.617646
   43   Nd43       0.339451862     1.617555244     0.020763595      Nd   1  *****    1.866771
   44   H44       -4.704686026    -0.674090781    -0.754543568       H   1  *****    0.195329
   45   H45        4.055754211    -2.488466561     0.747817237       H   1  *****    0.199902
   46   H46       -1.128169140    -4.287244228    -1.511748752       H   1  *****    0.179683
   47   H47       -2.238679407    -4.820667848    -0.284442357       H   1  *****    0.192996
   48   H48       -0.663999147    -4.372194562     1.521103567       H   1  *****    0.175638
   49   H49        0.139446005    -5.314548429     0.299840203       H   1  *****    0.188205
   50   H50       -4.650917755     0.374675529     1.363985700       H   1  *****    0.183162
   51   H51       -4.926073298     1.953878239     2.089653036       H   1  *****    0.233150
   52   H52       -5.977363496     1.399980612     0.763062133       H   1  *****    0.203334
   53   H53       -3.725315268     3.958236958     0.978696078       H   1  *****    0.222704
   54   H54       -3.651459724     3.824703578    -0.789808275       H   1  *****    0.225357
   55   H55       -5.230108217     3.733209661     0.043139310       H   1  *****    0.211079
   56   H56        4.875738251     2.054210670     0.801185996       H   1  *****    0.224468
   57   H57        6.278066123     1.355460120    -0.058259428       H   1  *****    0.209684
   58   H58        4.973257748     2.168996713    -0.967815964       H   1  *****    0.222734
   59   H59        6.041334251    -1.010933535    -0.896920355       H   1  *****    0.208908
   60   H60        4.396735684    -1.491379015    -1.377747250       H   1  *****    0.182144
   61   H61        5.159488232    -0.108453909    -2.156412610       H   1  *****    0.233188


@<TRIPOS>BOND
    1      1      2    1
    2      1      6    2
    3      2      3    2
    4      3      4    1
    5      4      5    2
    6      5      6    1
    7      7      8    1
    8      7     12    2
    9      8      9    2
   10      9     10    1
   11     10     11    2
   12     11     12    1
   13      6      9    1
   14      4     13    1
   15     11     14    1
   16     13     15    2
   17     13     16    1
   18     14     17    1
   19     14     18    2
   20     19     20    2
   21     19     21    2
   22     19     22    1
   23     23     24    2
   24     23     25    2
   25     23     26    1
   26     27     28    2
   27     27     29    2
   28     27     30    1
   29     31     32    1
   30      1     31    1
   31      8     32    1
   32     33     34    2
   33     33     35    2
   34      2     33    1
   35     36     37    2
   36     36     38    2
   37      7     36    1
   38     16     39    1
   39     16     40    1
   40     17     41    1
   41     17     42    1
   42      5     43    1
   43     15     43    1
   44     10     43    1
   45     18     43    1
   46     24     43    1
   47     29     43    1
   48     25     43    1
   49     28     43    1
   50     20     43    1
   51     21     43    1
   52      3     44    1
   53     12     45    1
   54     31     46    1
   55     31     47    1
   56     32     48    1
   57     32     49    1
   58     39     50    1
   59     39     51    1
   60     39     52    1
   61     40     53    1
   62     40     54    1
   63     40     55    1
   64     41     56    1
   65     41     57    1
   66     41     58    1
   67     42     59    1
   68     42     60    1
   69     42     61    1
#
#	File Created by: Spartan '14 Export
#

@<TRIPOS>MOLECULE
*****
60 68
SMALL
USER_CHARGES


@<TRIPOS>ATOM
    1   C1         0.591092878    -3.621119246     0.073284958     C.2   1  *****   -0.043749
    2   C2        -0.559867395    -4.356747048    -0.165679461     C.2   1  *****   -0.042453
    3   C3        -1.790474362    -3.678908668    -0.191448781     C.2   1  *****   -0.358628
    4   C4        -1.843397369    -2.296454819     0.021441031     C.2   1  *****    0.484130
    5   N5        -0.736117580    -1.597265578     0.276196550       N   1  *****   -0.544953
    6   C6         0.399278490    -2.259885489     0.296212328     C.2   1  *****    0.279826
    7   C7         3.962053145    -1.970155369     0.010777869     C.2   1  *****   -0.063756
    8   C8         2.694313205    -2.514221419     0.155332344     C.2   1  *****    0.016047
    9   C9         1.668379721    -1.593001390     0.346654238     C.2   1  *****    0.137765
   10   N10        1.762900315    -0.284721716     0.379269880       N   1  *****   -0.369685
   11   C11        2.976664673     0.245568871     0.244405441     C.2   1  *****    0.334315
   12   C12        4.099491998    -0.572695100     0.059075666     C.2   1  *****   -0.319363
   13   C13       -2.990631309    -1.346792249    -0.232107811     C.2   1  *****    0.153705
   14   C14        2.847685799     1.748609993     0.137946927     C.2   1  *****    0.255741
   15   O15       -2.683952909    -0.271972776    -0.766525990       O   1  *****   -0.424551
   16   N16       -4.259124407    -1.660388371     0.077932945     N.3   1  *****    0.257447
   17   N17        3.861535026     2.577084326     0.449559700     N.3   1  *****    0.223040
   18   O18        1.759712639     2.175860651    -0.273084051       O   1  *****   -0.459558
   19   N19       -1.058051331     0.746594381     2.719416586       N   1  *****    0.833667
   20   O20       -1.997775693     0.651964277     1.857137749       O   1  *****   -0.566700
   21   O21        0.086138483     1.069193196     2.252481631       O   1  *****   -0.575762
   22   O22       -1.238368573     0.527598729     3.899911104       O   1  *****   -0.421485
   23   N23       -2.003359347     3.589627091    -0.076259472       N   1  *****    0.879164
   24   O24       -0.790792441     3.462752837     0.328308490       O   1  *****   -0.585466
   25   O25       -2.541911484     2.519918575    -0.520263140       O   1  *****   -0.567868
   26   O26       -2.588582389     4.648391734    -0.036152090       O   1  *****   -0.422725
   27   N27        0.170158163     0.694630926    -2.913112421       N   1  *****    0.861476
   28   O28        0.273735782    -0.235528348    -2.031900823       O   1  *****   -0.613993
   29   O29       -0.336004880     1.785587164    -2.500207586       O   1  *****   -0.567565
   30   O30        0.537324506     0.530019580    -4.057479712       O   1  *****   -0.419619
   31   C31        2.098193008    -3.925810368     0.030864783     C.3   1  *****    0.457423
   32   C32        2.491296377    -4.570908520    -1.306097028     C.3   1  *****   -0.696804
   33   C33        2.522984002    -4.819926117     1.207335264     C.3   1  *****   -0.851285
   34   H34       -0.532658749    -5.421217301    -0.378476268       H   1  *****    0.138665
   35   H35        4.838111016    -2.583302245    -0.177694480       H   1  *****    0.135926
   36   C36       -4.656181201    -2.773172680     0.917743565     C.3   1  *****   -0.634795
   37   C37       -5.307773509    -0.700310050    -0.236306756     C.3   1  *****   -0.559949
   38   C38        5.047642376     2.204285074     1.196200374     C.3   1  *****   -0.621550
   39   C39        3.684980830     4.003982641     0.218892563     C.3   1  *****   -0.556224
   40   Nd40      -0.596070742     1.094964015    -0.136771963      Nd   1  *****    1.845579
   41   H41       -2.692442264    -4.227761191    -0.434752170       H   1  *****    0.177194
   42   H42        5.077562844    -0.137978518    -0.105020988       H   1  *****    0.172740
   43   H43        2.197527344    -3.943710823    -2.151541907       H   1  *****    0.188273
   44   H44        3.573574163    -4.726246128    -1.351171041       H   1  *****    0.191070
   45   H45        2.011061208    -5.547976962    -1.417685231       H   1  *****    0.192832
   46   H46        2.263449519    -4.366638697     2.167527574       H   1  *****    0.209621
   47   H47        2.030084553    -5.794581420     1.143621027       H   1  *****    0.232877
   48   H48        3.603936235    -4.988062093     1.187541190       H   1  *****    0.231742
   49   H49       -5.271787321    -2.394911888     1.739721510       H   1  *****    0.223131
   50   H50       -5.246677305    -3.504785967     0.354354974       H   1  *****    0.190596
   51   H51       -3.786536307    -3.263844294     1.349304223       H   1  *****    0.186935
   52   H52       -5.700253023    -0.263390914     0.687624285       H   1  *****    0.198430
   53   H53       -4.889610552     0.092170353    -0.852692321       H   1  *****    0.228915
   54   H54       -6.120594429    -1.205295848    -0.767231063       H   1  *****    0.177200
   55   H55        5.205197812     2.936110016     1.994021898       H   1  *****    0.219489
   56   H56        4.925898624     1.227929497     1.661005901       H   1  *****    0.192732
   57   H57        5.940229590     2.197431334     0.559227390       H   1  *****    0.184985
   58   H58        3.496606403     4.522176407     1.165236282       H   1  *****    0.197214
   59   H59        4.593484903     4.409952827    -0.235295106       H   1  *****    0.182891
   60   H60        2.834026045     4.155460996    -0.440597725       H   1  *****    0.215700


@<TRIPOS>BOND
    1      1      2    1
    2      1      6    2
    3      2      3    2
    4      3      4    1
    5      4      5    2
    6      5      6    1
    7      7      8    1
    8      7     12    2
    9      8      9    2
   10      9     10    1
   11     10     11    2
   12     11     12    1
   13      6      9    1
   14      4     13    1
   15     11     14    1
   16     13     15    2
   17     13     16    1
   18     14     17    1
   19     14     18    2
   20     19     20    2
   21     19     21    2
   22     19     22    1
   23     23     24    2
   24     23     25    2
   25     23     26    1
   26     27     28    2
   27     27     29    2
   28     27     30    1
   29     31     32    1
   30     31     33    1
   31      1     31    1
   32      8     31    1
   33      2     34    1
   34      7     35    1
   35     16     36    1
   36     16     37    1
   37     17     38    1
   38     17     39    1
   39      5     40    1
   40     15     40    1
   41     10     40    1
   42     18     40    1
   43     24     40    1
   44     29     40    1
   45     25     40    1
   46     28     40    1
   47     20     40    1
   48     21     40    1
   49      3     41    1
   50     12     42    1
   51     32     43    1
   52     32     44    1
   53     32     45    1
   54     33     46    1
   55     33     47    1
   56     33     48    1
   57     36     49    1
   58     36     50    1
   59     36     51    1
   60     37     52    1
   61     37     53    1
   62     37     54    1
   63     38     55    1
   64     38     56    1
   65     38     57    1
   66     39     58    1
   67     39     59    1
   68     39     60    1
#
#	File Created by: Spartan '14 Export
#

@<TRIPOS>MOLECULE
*****
68 76
SMALL
USER_CHARGES


@<TRIPOS>ATOM
    1   C1         3.235887009     0.445747095    -0.295524249     C.2   1  *****   -0.313300
    2   C2         3.684710767     1.763815473    -0.181279293     C.2   1  *****    0.564017
    3   C3         2.719507083     2.794772951    -0.183200880     C.2   1  *****   -0.550806
    4   C4         1.358522729     2.485504980    -0.298910935     C.2   1  *****    0.361067
    5   N5         0.937090334     1.231416353    -0.417361484       N   1  *****   -0.453009
    6   C6         1.865127972     0.297809216    -0.421324959     C.2   1  *****    0.242158
    7   C7         2.464584800    -3.213763902     0.012426041     C.2   1  *****    0.563680
    8   C8         2.671178089    -1.850074526    -0.208169579     C.2   1  *****   -0.371531
    9   C9         1.522427843    -1.095609674    -0.373476772     C.2   1  *****    0.390663
   10   N10        0.265604616    -1.493541762    -0.328398712       N   1  *****   -0.592211
   11   C11        0.066836845    -2.786823443    -0.083454697     C.2   1  *****    0.458148
   12   C12        1.132195410    -3.677778367     0.081932830     C.2   1  *****   -0.564251
   13   C13        0.162774792     3.396759378    -0.133917912     C.2   1  *****    0.308605
   14   C14       -1.397092989    -3.028298578     0.202439425     C.2   1  *****    0.229955
   15   O15       -0.863546121     2.874762995     0.321004258       O   1  *****   -0.468005
   16   N16        0.216104789     4.709931049    -0.431352774     N.3   1  *****    0.202303
   17   N17       -1.999949517    -4.196165970    -0.082840019     N.3   1  *****    0.232244
   18   O18       -1.998410861    -2.092032549     0.745509604       O   1  *****   -0.437445
   19   N19       -1.760761841    -0.096499044    -2.723346807       N   1  *****    0.827490
   20   O20       -1.232001449     0.959997051    -2.238017592       O   1  *****   -0.568389
   21   O21       -2.269643432    -0.901133602    -1.869541037       O   1  *****   -0.565027
   22   O22       -1.765676586    -0.329868928    -3.915305872       O   1  *****   -0.424143
   23   N23       -4.415838865     1.019407374     0.168889413       N   1  *****    0.898217
   24   O24       -3.974551390    -0.106128566     0.579376983       O   1  *****   -0.575251
   25   O25       -3.520792473     1.835545921    -0.256799620       O   1  *****   -0.592444
   26   O26       -5.593831487     1.301710470     0.177109121       O   1  *****   -0.433356
   27   N27       -0.824120139     0.654029385     2.934930880       N   1  *****    0.863053
   28   O28       -0.053865582     0.129250535     2.050454297       O   1  *****   -0.613371
   29   O29       -1.971584565     1.012315613     2.519838604       O   1  *****   -0.566427
   30   O30       -0.467193989     0.794829557     4.086421901       O   1  *****   -0.425321
   31   C31        3.901283745    -0.931569666    -0.176975894     C.3   1  *****    0.552403
   32   C32        4.641901794    -1.060915628     1.165382638     C.3   1  *****   -0.647941
   33   C33        4.855615360    -1.212410808    -1.348526314     C.3   1  *****   -0.838338
   34   O34        5.007917192     1.965806861    -0.044357203     O.3   1  *****   -0.236041
   35   C35        5.489734183     3.288863282     0.126996392     C.3   1  *****   -0.425285
   36   O36        3.546767269    -3.992571984     0.188284392     O.3   1  *****   -0.224130
   37   C37        3.365731284    -5.372756828     0.464362863     C.3   1  *****   -0.417384
   38   C38        1.222013215     5.336683697    -1.266988389     C.3   1  *****   -0.612458
   39   C39       -0.945544029     5.531521982    -0.122435704     C.3   1  *****   -0.596190
   40   C40       -1.471009967    -5.204663755    -0.979730942     C.3   1  *****   -0.624316
   41   C41       -3.401769277    -4.351196232     0.279236052     C.3   1  *****   -0.592492
   42   Nd42      -1.614995134     0.388360759     0.147638435      Nd   1  *****    1.850621
   43   H43        3.029580905     3.819777073    -0.037828406       H   1  *****    0.200936
   44   H44        0.933465631    -4.712421163     0.324788339       H   1  *****    0.202232
   45   H45        3.970498227    -0.860001931     2.004488977       H   1  *****    0.184604
   46   H46        5.041514285    -2.072043736     1.274407916       H   1  *****    0.180343
   47   H47        5.468979755    -0.348072327     1.204260242       H   1  *****    0.179596
   48   H48        4.341839845    -1.123932072    -2.309615948       H   1  *****    0.218496
   49   H49        5.685550439    -0.501004412    -1.333459304       H   1  *****    0.226969
   50   H50        5.261884544    -2.223959919    -1.265622643       H   1  *****    0.226598
   51   H51        5.085383469     3.742870689     1.037972108       H   1  *****    0.179974
   52   H52        6.571645395     3.200699808     0.215480093       H   1  *****    0.208274
   53   H53        5.245402189     3.914440543    -0.738478691       H   1  *****    0.175018
   54   H54        2.815717050    -5.520606274     1.399748915       H   1  *****    0.178882
   55   H55        2.842421422    -5.875191840    -0.356404355       H   1  *****    0.172759
   56   H56        4.367574433    -5.788262901     0.563027076       H   1  *****    0.204715
   57   H57        0.719329572     5.935463881    -2.032693371       H   1  *****    0.219349
   58   H58        1.872028289     6.003843512    -0.687522358       H   1  *****    0.177457
   59   H59        1.828160129     4.589232945    -1.775433383       H   1  *****    0.196627
   60   H60       -1.535594233     5.718375983    -1.026332712       H   1  *****    0.208650
   61   H61       -1.568592576     5.009158322     0.599399152       H   1  *****    0.224314
   62   H62       -0.608992138     6.487731951     0.288474351       H   1  *****    0.193574
   63   H63       -2.189692358    -5.377746620    -1.787362690       H   1  *****    0.222991
   64   H64       -0.536899394    -4.874576501    -1.428974191       H   1  *****    0.192059
   65   H65       -1.309346782    -6.154190337    -0.455925748       H   1  *****    0.182237
   66   H66       -4.037143121    -4.218277688    -0.602856899       H   1  *****    0.210567
   67   H67       -3.559826266    -5.353581658     0.687561430       H   1  *****    0.186828
   68   H68       -3.665312108    -3.595739849     1.015546925       H   1  *****    0.230189


@<TRIPOS>BOND
    1      1      2    1
    2      1      6    2
    3      2      3    2
    4      3      4    1
    5      4      5    2
    6      5      6    1
    7      7      8    1
    8      7     12    2
    9      8      9    2
   10      9     10    1
   11     10     11    2
   12     11     12    1
   13      6      9    1
   14      4     13    1
   15     11     14    1
   16     13     15    2
   17     13     16    1
   18     14     17    1
   19     14     18    2
   20     19     20    2
   21     19     21    2
   22     19     22    1
   23     23     24    2
   24     23     25    2
   25     23     26    1
   26     27     28    2
   27     27     29    2
   28     27     30    1
   29     31     32    1
   30     31     33    1
   31      1     31    1
   32      8     31    1
   33     34     35    1
   34      2     34    1
   35     36     37    1
   36      7     36    1
   37     16     38    1
   38     16     39    1
   39     17     40    1
   40     17     41    1
   41      5     42    1
   42     15     42    1
   43     10     42    1
   44     18     42    1
   45     24     42    1
   46     29     42    1
   47     25     42    1
   48     28     42    1
   49     20     42    1
   50     21     42    1
   51      3     43    1
   52     12     44    1
   53     32     45    1
   54     32     46    1
   55     32     47    1
   56     33     48    1
   57     33     49    1
   58     33     50    1
   59     35     51    1
   60     35     52    1
   61     35     53    1
   62     37     54    1
   63     37     55    1
   64     37     56    1
   65     38     57    1
   66     38     58    1
   67     38     59    1
   68     39     60    1
   69     39     61    1
   70     39     62    1
   71     40     63    1
   72     40     64    1
   73     40     65    1
   74     41     66    1
   75     41     67    1
   76     41     68    1
#
#	File Created by: Spartan '14 Export
#

@<TRIPOS>MOLECULE
*****
60 68
SMALL
USER_CHARGES


@<TRIPOS>ATOM
    1   C1         3.184244900     0.792225411    -0.204783040     C.2   1  *****   -0.054007
    2   C2         3.459749615     2.149872073    -0.118226131     C.2   1  *****    0.170928
    3   C3         2.403128243     3.076389901    -0.138355635     C.2   1  *****   -0.357730
    4   C4         1.083510875     2.627461999    -0.255951807     C.2   1  *****    0.338549
    5   N5         0.812480791     1.328037184    -0.346227136       N   1  *****   -0.386980
    6   C6         1.828383418     0.499700515    -0.330423118     C.2   1  *****    0.171441
    7   C7         2.762732145    -2.934936498     0.033223627     C.2   1  *****    0.192751
    8   C8         2.858296596    -1.560852583    -0.134650786     C.2   1  *****   -0.105969
    9   C9         1.630555496    -0.920991091    -0.288838251     C.2   1  *****    0.284676
   10   N10        0.426071391    -1.445994748    -0.266816985       N   1  *****   -0.527316
   11   C11        0.344494196    -2.760741304    -0.063942018     C.2   1  *****    0.446554
   12   C12        1.495243702    -3.539979630     0.080315518     C.2   1  *****   -0.385028
   13   C13       -0.215421429     3.395636106    -0.132764709     C.2   1  *****    0.276807
   14   C14       -1.093682939    -3.152222469     0.190659588     C.2   1  *****    0.182382
   15   O15       -1.176851579     2.757190707     0.316652423       O   1  *****   -0.463994
   16   N16       -0.317594269     4.692518535    -0.470840122     N.3   1  *****    0.216450
   17   N17       -1.559413831    -4.375387917    -0.105643951     N.3   1  *****    0.259749
   18   O18       -1.798287377    -2.282143361     0.720281144       O   1  *****   -0.424540
   19   N19       -1.643208868    -0.259424690    -2.723735418       N   1  *****    0.824047
   20   O20       -2.088382308    -1.122069455    -1.890450668       O   1  *****   -0.567648
   21   O21       -1.265147031     0.850557377    -2.216004305       O   1  *****   -0.570549
   22   O22       -1.569402133    -0.486622335    -3.913474068       O   1  *****   -0.416084
   23   N23       -4.526066886     0.606826733     0.106145535       N   1  *****    0.900516
   24   O24       -3.697882223     1.510758104    -0.277092721       O   1  *****   -0.592343
   25   O25       -3.992947167    -0.485875803     0.499238366       O   1  *****   -0.575100
   26   O26       -5.723305941     0.781978248     0.093526878       O   1  *****   -0.427639
   27   N27       -0.965256987     0.545530363     2.944944564       N   1  *****    0.863584
   28   O28       -0.128328477     0.124547782     2.062717329       O   1  *****   -0.616201
   29   O29       -2.139772922     0.776636945     2.516334597       O   1  *****   -0.566454
   30   O30       -0.641280397     0.707273651     4.101771563       O   1  *****   -0.416713
   31   C31        3.987365845    -0.515263432    -0.096243983     C.3   1  *****    0.437873
   32   C32        4.735105702    -0.580412215     1.247258246     C.3   1  *****   -0.591118
   33   C33        4.954248294    -0.686971002    -1.279296886     C.3   1  *****   -0.772833
   34   Cl34       5.083124099     2.755756474     0.053386535      Cl   1  *****   -0.058852
   35   Cl35       4.166425172    -3.944586955     0.231900867      Cl   1  *****   -0.057445
   36   C36        0.658734143     5.439728536    -1.241352590     C.3   1  *****   -0.608410
   37   C37       -1.583105030     5.371938625    -0.225944750     C.3   1  *****   -0.570578
   38   C38       -0.885737730    -5.338151685    -0.957292744     C.3   1  *****   -0.614083
   39   C39       -2.938406801    -4.691490300     0.242093293     C.3   1  *****   -0.589373
   40   Nd40      -1.685302817     0.228970893     0.149266586      Nd   1  *****    1.843611
   41   H41        2.634810632     4.125440497    -0.014525661       H   1  *****    0.179937
   42   H42        1.431849390    -4.602735711     0.273584214       H   1  *****    0.184453
   43   H43        4.045051552    -0.468578441     2.087518363       H   1  *****    0.163329
   44   H44        5.249771770    -1.538636320     1.345879407       H   1  *****    0.168055
   45   H45        5.480585898     0.215631620     1.303281491       H   1  *****    0.165995
   46   H46        4.425964223    -0.637611229    -2.235195068       H   1  *****    0.193233
   47   H47        5.715084615     0.097479703    -1.264610069       H   1  *****    0.211989
   48   H48        5.458926646    -1.653937351    -1.213823207       H   1  *****    0.213290
   49   H49        0.132707641     6.000100379    -2.019289106       H   1  *****    0.218277
   50   H50        1.205774786     6.156243486    -0.617006529       H   1  *****    0.186688
   51   H51        1.363750987     4.772412638    -1.733248099       H   1  *****    0.190653
   52   H52       -2.112488791     5.536049730    -1.170296628       H   1  *****    0.201512
   53   H53       -2.199656713     4.752945149     0.421067146       H   1  *****    0.222514
   54   H54       -1.388319404     6.339050122     0.246787316       H   1  *****    0.188653
   55   H55       -1.594137596    -5.697957803    -1.708989733       H   1  *****    0.221159
   56   H56       -0.051482830    -4.877974958    -1.483478222       H   1  *****    0.186891
   57   H57       -0.527088004    -6.200144417    -0.382898599       H   1  *****    0.184914
   58   H58       -3.569217010    -4.655293177    -0.652013457       H   1  *****    0.208400
   59   H59       -2.979937441    -5.696218925     0.671811986       H   1  *****    0.188077
   60   H60       -3.302130523    -3.958228744     0.957820293       H   1  *****    0.229047


@<TRIPOS>BOND
    1      1      2    1
    2      1      6    2
    3      2      3    2
    4      3      4    1
    5      4      5    2
    6      5      6    1
    7      7      8    1
    8      7     12    2
    9      8      9    2
   10      9     10    1
   11     10     11    2
   12     11     12    1
   13      6      9    1
   14      4     13    1
   15     11     14    1
   16     13     15    2
   17     13     16    1
   18     14     17    1
   19     14     18    2
   20     19     20    2
   21     19     21    2
   22     19     22    1
   23     23     24    2
   24     23     25    2
   25     23     26    1
   26     27     28    2
   27     27     29    2
   28     27     30    1
   29     31     32    1
   30     31     33    1
   31      1     31    1
   32      8     31    1
   33      2     34    1
   34      7     35    1
   35     16     36    1
   36     16     37    1
   37     17     38    1
   38     17     39    1
   39      5     40    1
   40     15     40    1
   41     10     40    1
   42     18     40    1
   43     24     40    1
   44     29     40    1
   45     25     40    1
   46     28     40    1
   47     20     40    1
   48     21     40    1
   49      3     41    1
   50     12     42    1
   51     32     43    1
   52     32     44    1
   53     32     45    1
   54     33     46    1
   55     33     47    1
   56     33     48    1
   57     36     49    1
   58     36     50    1
   59     36     51    1
   60     37     52    1
   61     37     53    1
   62     37     54    1
   63     38     55    1
   64     38     56    1
   65     38     57    1
   66     39     58    1
   67     39     59    1
   68     39     60    1
#
#	File Created by: Spartan '14 Export
#

@<TRIPOS>MOLECULE
*****
60 68
SMALL
USER_CHARGES


@<TRIPOS>ATOM
    1   C1         2.758707664     2.089474755     0.146652855     C.2   1  *****   -0.334264
    2   C2         2.431713988     3.410212757    -0.094103794     C.2   1  *****    0.491280
    3   C3         1.090947253     3.810324570    -0.146443375     C.2   1  *****   -0.526509
    4   C4         0.086234502     2.859758653     0.057615898     C.2   1  *****    0.473127
    5   N5         0.382512919     1.585737650     0.321814242       N   1  *****   -0.559006
    6   C6         1.657098838     1.264539888     0.352718007     C.2   1  *****    0.349615
    7   C7         3.975422404    -1.435609738     0.120165430     C.2   1  *****    0.486093
    8   C8         3.475092789    -0.153076331     0.245300707     C.2   1  *****   -0.285307
    9   C9         2.094559923    -0.103610218     0.409983544     C.2   1  *****    0.226597
   10   N10        1.241829341    -1.101299912     0.431132999       N   1  *****   -0.436699
   11   C11        1.738968242    -2.329372793     0.298851340     C.2   1  *****    0.384258
   12   C12        3.114340804    -2.539194216     0.143659967     C.2   1  *****   -0.519229
   13   C13       -1.395061061     2.991308031    -0.213092335     C.2   1  *****    0.202171
   14   C14        0.600400292    -3.315409394     0.154120525     C.2   1  *****    0.286643
   15   O15       -1.930006614     1.999276280    -0.726088299       O   1  *****   -0.428521
   16   N16       -2.072980846     4.118337206     0.054613737     N.3   1  *****    0.242586
   17   N17        0.742608663    -4.617615304     0.456992265     N.3   1  *****    0.211960
   18   O18       -0.461286342    -2.856193390    -0.287706391       O   1  *****   -0.460834
   19   N19       -0.572957155    -0.637088566    -2.906303020       N   1  *****    0.853618
   20   O20       -1.706015862    -1.055620968    -2.509224192       O   1  *****   -0.564220
   21   O21        0.159755582    -0.085984868    -2.003387706       O   1  *****   -0.614365
   22   O22       -0.193967407    -0.744755661    -4.052890749       O   1  *****   -0.413289
   23   N23       -4.151222542    -1.248619917    -0.185428925       N   1  *****    0.900168
   24   O24       -3.779319590    -0.076119051    -0.533315560       O   1  *****   -0.576702
   25   O25       -3.205835365    -2.026552613     0.202073417       O   1  *****   -0.592280
   26   O26       -5.307638973    -1.603182366    -0.216465987       O   1  *****   -0.426461
   27   N27       -1.517341856     0.023013654     2.742537716       N   1  *****    0.823648
   28   O28       -0.973275640    -1.019419322     2.241007503       O   1  *****   -0.572370
   29   O29       -2.060448868     0.818979908     1.901257137       O   1  *****   -0.569353
   30   O30       -1.505390540     0.250008065     3.934570120       O   1  *****   -0.414456
   31   C31        4.047089039     1.260694410     0.102843697     C.3   1  *****    0.672841
   32   C32        4.996718882     1.615438170     1.258055892     C.3   1  *****   -0.865672
   33   C33        4.758386189     1.426684740    -1.251045746     C.3   1  *****   -0.695761
   34   F34        3.382850591     4.316592548    -0.333659072       F   1  *****   -0.178433
   35   F35        5.281168940    -1.643517480    -0.068785771       F   1  *****   -0.181998
   36   C36       -1.582764152     5.210293644     0.873227364     C.3   1  *****   -0.629711
   37   C37       -3.485899326     4.175428908    -0.295581542     C.3   1  *****   -0.559225
   38   C38       -0.369519201    -5.516263300     0.179088612     C.3   1  *****   -0.587896
   39   C39        1.824025668    -5.180676707     1.243473842     C.3   1  *****   -0.627411
   40   Nd40      -1.403181499    -0.443892373    -0.128897835      Nd   1  *****    1.851932
   41   H41        0.868116490     4.837654844    -0.404654501       H   1  *****    0.223049
   42   H42        3.537001925    -3.522732692    -0.014489188       H   1  *****    0.223329
   43   H43        4.507728818     1.500693086     2.228881921       H   1  *****    0.215717
   44   H44        5.873175026     0.962461131     1.232405536       H   1  *****    0.234821
   45   H45        5.333976905     2.651003315     1.160478613       H   1  *****    0.236636
   46   H46        4.094630686     1.172373611    -2.081332636       H   1  *****    0.187428
   47   H47        5.088601544     2.461314334    -1.374890205       H   1  *****    0.195186
   48   H48        5.633544689     0.773456635    -1.293820961       H   1  *****    0.192992
   49   H49       -2.309006215     5.413140959     1.666403095       H   1  *****    0.223571
   50   H50       -0.637938111     4.950879349     1.345948398       H   1  *****    0.192708
   51   H51       -1.457140789     6.124608270     0.281781617       H   1  *****    0.191487
   52   H52       -3.694597565     5.117758549    -0.810724573       H   1  *****    0.181662
   53   H53       -3.727848314     3.331733169    -0.937399210       H   1  *****    0.223536
   54   H54       -4.097458200     4.118906679     0.610644677       H   1  *****    0.200805
   55   H55       -0.915823151    -5.743998036     1.100558600       H   1  *****    0.207723
   56   H56       -1.048985730    -5.037168626    -0.521694201       H   1  *****    0.223942
   57   H57        0.019375961    -6.445997700    -0.245545176       H   1  *****    0.194641
   58   H58        1.395671041    -5.815265114     2.024887870       H   1  *****    0.223528
   59   H59        2.490267098    -5.797845067     0.629320425       H   1  *****    0.190249
   60   H60        2.400861040    -4.398650703     1.733566924       H   1  *****    0.200423


@<TRIPOS>BOND
    1      1      2    1
    2      1      6    2
    3      2      3    2
    4      3      4    1
    5      4      5    2
    6      5      6    1
    7      7      8    1
    8      7     12    2
    9      8      9    2
   10      9     10    1
   11     10     11    2
   12     11     12    1
   13      6      9    1
   14      4     13    1
   15     11     14    1
   16     13     15    2
   17     13     16    1
   18     14     17    1
   19     14     18    2
   20     19     20    2
   21     19     21    2
   22     19     22    1
   23     23     24    2
   24     23     25    2
   25     23     26    1
   26     27     28    2
   27     27     29    2
   28     27     30    1
   29     31     32    1
   30     31     33    1
   31      1     31    1
   32      8     31    1
   33      2     34    1
   34      7     35    1
   35     16     36    1
   36     16     37    1
   37     17     38    1
   38     17     39    1
   39      5     40    1
   40     15     40    1
   41     10     40    1
   42     18     40    1
   43     24     40    1
   44     29     40    1
   45     25     40    1
   46     28     40    1
   47     20     40    1
   48     21     40    1
   49      3     41    1
   50     12     42    1
   51     32     43    1
   52     32     44    1
   53     32     45    1
   54     33     46    1
   55     33     47    1
   56     33     48    1
   57     36     49    1
   58     36     50    1
   59     36     51    1
   60     37     52    1
   61     37     53    1
   62     37     54    1
   63     38     55    1
   64     38     56    1
   65     38     57    1
   66     39     58    1
   67     39     59    1
   68     39     60    1
#
#	File Created by: Spartan '14 Export
#

@<TRIPOS>MOLECULE
*****
74 82
SMALL
USER_CHARGES


@<TRIPOS>ATOM
    1   C1         2.975005924     0.483911128    -0.365901587     C.2   1  *****   -0.220719
    2   C2         3.415791868     1.802067579    -0.225928129     C.2   1  *****    0.271389
    3   C3         2.435614565     2.810214450    -0.153766887     C.2   1  *****   -0.415280
    4   C4         1.072390453     2.502629006    -0.216812959     C.2   1  *****    0.352760
    5   N5         0.664938572     1.242065037    -0.332614157       N   1  *****   -0.392945
    6   C6         1.595746185     0.319907252    -0.411020565     C.2   1  *****    0.180501
    7   C7         2.211043144    -3.226683525    -0.272932144     C.2   1  *****    0.152075
    8   C8         2.416687445    -1.848435796    -0.369513373     C.2   1  *****   -0.163961
    9   C9         1.261635175    -1.072297441    -0.409152684     C.2   1  *****    0.298408
   10   N10        0.011680485    -1.472316889    -0.329668406       N   1  *****   -0.525191
   11   C11       -0.197361766    -2.780805836    -0.191500605     C.2   1  *****    0.436603
   12   C12        0.877621044    -3.672510979    -0.171053897     C.2   1  *****   -0.366053
   13   C13       -0.132985849     3.392950075    -0.014737684     C.2   1  *****    0.266608
   14   C14       -1.650492432    -3.029598246     0.136957757     C.2   1  *****    0.202810
   15   O15       -1.159402733     2.840757188     0.408758412       O   1  *****   -0.472502
   16   N16       -0.094438913     4.716701693    -0.254500212     N.3   1  *****    0.234448
   17   N17       -2.274333928    -4.168089753    -0.209074339     N.3   1  *****    0.204464
   18   O18       -2.217554278    -2.132520108     0.775331179       O   1  *****   -0.429272
   19   N19       -1.962775684    -0.169223355    -2.671365134       N   1  *****    0.827468
   20   O20       -1.422493923     0.883022868    -2.191375694       O   1  *****   -0.568739
   21   O21       -2.514278085    -0.945393373    -1.817871926       O   1  *****   -0.562391
   22   O22       -1.938137019    -0.427139852    -3.858517025       O   1  *****   -0.427246
   23   N23       -4.688564855     0.955220604     0.117868991       N   1  *****    0.882043
   24   O24       -4.243326728    -0.145696454     0.585748668       O   1  *****   -0.563208
   25   O25       -3.792430455     1.774990500    -0.300672965       O   1  *****   -0.587114
   26   O26       -5.870807334     1.214139379     0.068870244       O   1  *****   -0.429421
   27   N27       -1.115848287     0.605076312     2.991575806       N   1  *****    0.860888
   28   O28       -0.322937641     0.122706663     2.103267239       O   1  *****   -0.609763
   29   O29       -2.272260608     0.933862649     2.574060691       O   1  *****   -0.567681
   30   O30       -0.772968249     0.735514172     4.147903772       O   1  *****   -0.421331
   31   C31        3.645264431    -0.908479486    -0.383105353     C.3   1  *****    0.669590
   32   C32        4.506976034    -1.112731974     0.874690239     C.3   1  *****   -0.730667
   33   C33        4.478369151    -1.107401742    -1.661600605     C.3   1  *****   -0.926632
   34   C34        4.867254312     2.176107656    -0.085856842     C.3   1  *****   -0.052370
   35   O35        5.025455617     3.559202199    -0.242340689     O.3   1  *****   -0.210328
   36   C36        6.352903868     3.979773350    -0.038424766     C.3   1  *****   -0.394021
   37   C37        3.313204539    -4.253432346    -0.221481824     C.3   1  *****   -0.058973
   38   O38        3.843435772    -4.299636382     1.083107246     O.3   1  *****   -0.206734
   39   C39        4.815267635    -5.309706247     1.231216549     C.3   1  *****   -0.410296
   40   C40        0.925930369     5.402516048    -1.025658325     C.3   1  *****   -0.618549
   41   C41       -1.266548228     5.511043730     0.085604759     C.3   1  *****   -0.582838
   42   C42       -1.810994134    -5.078226765    -1.239197343     C.3   1  *****   -0.589906
   43   C43       -3.662475217    -4.332939070     0.199244229     C.3   1  *****   -0.565022
   44   Nd44      -1.881017329     0.369643970     0.201193140      Nd   1  *****    1.838782
   45   H45        2.779639163     3.824260045    -0.009262684       H   1  *****    0.173412
   46   H46        0.701785113    -4.733151642    -0.030299601       H   1  *****    0.177375
   47   H47        5.394506563    -0.474062884     0.838064308       H   1  *****    0.158710
   48   H48        3.940791473    -0.870586524     1.777936291       H   1  *****    0.181985
   49   H49        4.827793821    -2.152595922     0.956724672       H   1  *****    0.228018
   50   H50        5.298213576    -0.384787920    -1.705120236       H   1  *****    0.230015
   51   H51        4.923680874    -2.105798038    -1.680850313       H   1  *****    0.247245
   52   H52        3.866995573    -0.984978639    -2.559422228       H   1  *****    0.220843
   53   H53        5.473957279     1.630686403    -0.827114291       H   1  *****    0.097728
   54   H54        5.228350361     1.857862566     0.907820681       H   1  *****    0.108999
   55   H55        7.040892707     3.506396996    -0.754101084       H   1  *****    0.146974
   56   H56        6.373145008     5.060190238    -0.187281215       H   1  *****    0.187998
   57   H57        6.696770474     3.750273835     0.980595487       H   1  *****    0.151208
   58   H58        4.101344273    -4.014295613    -0.951987536       H   1  *****    0.084198
   59   H59        2.906198910    -5.237521629    -0.502147084       H   1  *****    0.104243
   60   H60        5.673909436    -5.151862731     0.561401349       H   1  *****    0.145889
   61   H61        5.157458736    -5.272434493     2.266264396       H   1  *****    0.191973
   62   H62        4.394076510    -6.304843432     1.027004603       H   1  *****    0.159308
   63   H63        1.581595348     6.005347245    -0.386448877       H   1  *****    0.188141
   64   H64        1.526504582     4.697620931    -1.596567269       H   1  *****    0.197679
   65   H65        0.430649676     6.071738746    -1.734960879       H   1  *****    0.215136
   66   H66       -0.941590462     6.448666020     0.545356494       H   1  *****    0.188475
   67   H67       -1.850780064     5.736949064    -0.813170488       H   1  *****    0.201425
   68   H68       -1.890120475     4.948823756     0.776210938       H   1  *****    0.220746
   69   H69       -0.902701473    -4.703522305    -1.705880934       H   1  *****    0.169926
   70   H70       -1.628237526    -6.078620340    -0.831139135       H   1  *****    0.178771
   71   H71       -2.577875299    -5.156124827    -2.016529082       H   1  *****    0.220482
   72   H72       -3.852971166    -3.722140491     1.078647205       H   1  *****    0.220685
   73   H73       -4.335583404    -4.009065935    -0.601776692       H   1  *****    0.208885
   74   H74       -3.844459484    -5.387580082     0.422051616       H   1  *****    0.183848


@<TRIPOS>BOND
    1      1      2    1
    2      1      6    2
    3      2      3    2
    4      3      4    1
    5      4      5    2
    6      5      6    1
    7      7      8    1
    8      7     12    2
    9      8      9    2
   10      9     10    1
   11     10     11    2
   12     11     12    1
   13      6      9    1
   14      4     13    1
   15     11     14    1
   16     13     15    2
   17     13     16    1
   18     14     17    1
   19     14     18    2
   20     19     20    2
   21     19     21    2
   22     19     22    1
   23     23     24    2
   24     23     25    2
   25     23     26    1
   26     27     28    2
   27     27     29    2
   28     27     30    1
   29     31     32    1
   30     31     33    1
   31      1     31    1
   32      8     31    1
   33     34     35    1
   34     35     36    1
   35      2     34    1
   36     37     38    1
   37     38     39    1
   38      7     37    1
   39     16     40    1
   40     16     41    1
   41     17     42    1
   42     17     43    1
   43      5     44    1
   44     15     44    1
   45     10     44    1
   46     18     44    1
   47     24     44    1
   48     29     44    1
   49     25     44    1
   50     28     44    1
   51     20     44    1
   52     21     44    1
   53      3     45    1
   54     12     46    1
   55     32     47    1
   56     32     48    1
   57     32     49    1
   58     33     50    1
   59     33     51    1
   60     33     52    1
   61     34     53    1
   62     34     54    1
   63     36     55    1
   64     36     56    1
   65     36     57    1
   66     37     58    1
   67     37     59    1
   68     39     60    1
   69     39     61    1
   70     39     62    1
   71     40     63    1
   72     40     64    1
   73     40     65    1
   74     41     66    1
   75     41     67    1
   76     41     68    1
   77     42     69    1
   78     42     70    1
   79     42     71    1
   80     43     72    1
   81     43     73    1
   82     43     74    1
#
#	File Created by: Spartan '14 Export
#

@<TRIPOS>MOLECULE
*****
64 72
SMALL
USER_CHARGES


@<TRIPOS>ATOM
    1   C1         2.816483278     1.418490262    -0.158477591     C.2   1  *****   -0.135483
    2   C2         2.746542336     2.799830737     0.015258555     C.2   1  *****    0.086942
    3   C3         1.508944122     3.454906595     0.058093725     C.2   1  *****   -0.374672
    4   C4         0.331392974     2.725102038    -0.094662524     C.2   1  *****    0.489775
    5   N5         0.372915037     1.407010580    -0.281152700       N   1  *****   -0.545918
    6   C6         1.554992057     0.832354035    -0.301937880     C.2   1  *****    0.314553
    7   C7         3.177750089    -2.347697854    -0.076063906     C.2   1  *****    0.071424
    8   C8         3.018891272    -0.967639674    -0.198284351     C.2   1  *****   -0.104790
    9   C9         1.677866221    -0.597254391    -0.328849037     C.2   1  *****    0.225012
   10   N10        0.610800554    -1.360064349    -0.340428102       N   1  *****   -0.410577
   11   C11        0.784211128    -2.673215783    -0.223088458     C.2   1  *****    0.376480
   12   C12        2.067051739    -3.201840153    -0.076535844     C.2   1  *****   -0.347335
   13   C13       -1.089435725     3.179768746     0.144790069     C.2   1  *****    0.168951
   14   C14       -0.559578839    -3.356319226    -0.096562066     C.2   1  *****    0.269012
   15   O15       -1.828896058     2.347689967     0.689502200       O   1  *****   -0.427508
   16   N16       -1.501108024     4.412936981    -0.176772269     N.3   1  *****    0.257689
   17   N17       -0.737312546    -4.648683267    -0.410601518     N.3   1  *****    0.217213
   18   O18       -1.481280756    -2.649196807     0.334400958       O   1  *****   -0.462649
   19   N19       -1.698505707     0.306515608    -2.741894346       N   1  *****    0.824342
   20   O20       -2.084871877     1.219035407    -1.931019197       O   1  *****   -0.566345
   21   O21       -1.462981689    -0.832630645    -2.213225836       O   1  *****   -0.570886
   22   O22       -1.550997341     0.514710435    -3.927518573       O   1  *****   -0.411961
   23   N23       -4.723406557    -0.371381444     0.074511446       N   1  *****    0.902914
   24   O24       -3.941736491    -1.338321567    -0.248318843       O   1  *****   -0.596610
   25   O25       -4.132002058     0.714408517     0.404253766       O   1  *****   -0.582609
   26   O26       -5.927089062    -0.482049841     0.064978544       O   1  *****   -0.418841
   27   N27       -1.148373328    -0.450586500     2.927221225       N   1  *****    0.858589
   28   O28       -0.285428251    -0.130427618     2.026725083       O   1  *****   -0.614319
   29   O29       -2.344614388    -0.578729126     2.513864888       O   1  *****   -0.564410
   30   O30       -0.827814235    -0.616088744     4.083314072       O   1  *****   -0.408425
   31   C31        3.894216617     0.306892188    -0.148600978     C.3   1  *****    0.562643
   32   C32        4.719068866     0.357794600     1.149205754     C.3   1  *****   -0.744943
   33   C33        4.770631271     0.399663510    -1.414739143     C.3   1  *****   -0.898263
   34   N34        3.932335627     3.660118633     0.195920903       N   1  *****    0.695992
   35   O35        3.743434869     4.806656341     0.573917802     O.2   1  *****   -0.367483
   36   O36        5.027732708     3.176659216    -0.057215461     O.2   1  *****   -0.388864
   37   N37        4.489158684    -3.006830293     0.080473026       N   1  *****    0.699015
   38   O38        4.492965162    -4.187094777     0.397577754     O.2   1  *****   -0.369685
   39   O39        5.490316546    -2.335174784    -0.131716993     O.2   1  *****   -0.386914
   40   C40       -0.778865271     5.337598690    -1.032595985     C.3   1  *****   -0.629781
   41   C41       -2.868339754     4.794125708     0.155513296     C.3   1  *****   -0.568841
   42   C42        0.215199454    -5.481860950    -1.122806904     C.3   1  *****   -0.633647
   43   C43       -2.043606798    -5.247843165    -0.165792584     C.3   1  *****   -0.563577
   44   Nd44      -1.871456623    -0.138662838     0.134189854      Nd   1  *****    1.851180
   45   H45        1.505225576     4.517981420     0.253680585       H   1  *****    0.189258
   46   H46        2.246667079    -4.255319627     0.080235623       H   1  *****    0.184500
   47   H47        4.068786368     0.306514623     2.027225638       H   1  *****    0.176375
   48   H48        5.417339481    -0.478118292     1.179834391       H   1  *****    0.225914
   49   H49        5.291968793     1.284112948     1.189093647       H   1  *****    0.229003
   50   H50        4.153349451     0.373755374    -2.317668833       H   1  *****    0.201479
   51   H51        5.333294996     1.332228340    -1.403525083       H   1  *****    0.271628
   52   H52        5.464793148    -0.439118964    -1.442672883       H   1  *****    0.268178
   53   H53       -1.465280516     5.715379162    -1.795408887       H   1  *****    0.226733
   54   H54       -0.391978325     6.190177637    -0.463421464       H   1  *****    0.197436
   55   H55        0.040876841     4.838866088    -1.546365566       H   1  *****    0.190736
   56   H56       -3.491637594     4.771324695    -0.743986627       H   1  *****    0.205669
   57   H57       -3.270303360     4.089696117     0.879638640       H   1  *****    0.228105
   58   H58       -2.867650202     5.806323348     0.568710733       H   1  *****    0.186713
   59   H59       -0.328064482    -6.065255903    -1.870660755       H   1  *****    0.227116
   60   H60        0.951792352    -4.876574728    -1.647705037       H   1  *****    0.197053
   61   H61        0.724878725    -6.180484678    -0.449243356       H   1  *****    0.201785
   62   H62       -2.554080366    -5.434206827    -1.115989831       H   1  *****    0.202238
   63   H63       -1.912152457    -6.197097883     0.361628022       H   1  *****    0.189466
   64   H64       -2.642916644    -4.564827738     0.431020708       H   1  *****    0.224225


@<TRIPOS>BOND
    1      1      2    1
    2      1      6    2
    3      2      3    2
    4      3      4    1
    5      4      5    2
    6      5      6    1
    7      7      8    1
    8      7     12    2
    9      8      9    2
   10      9     10    1
   11     10     11    2
   12     11     12    1
   13      6      9    1
   14      4     13    1
   15     11     14    1
   16     13     15    2
   17     13     16    1
   18     14     17    1
   19     14     18    2
   20     19     20    2
   21     19     21    2
   22     19     22    1
   23     23     24    2
   24     23     25    2
   25     23     26    1
   26     27     28    2
   27     27     29    2
   28     27     30    1
   29     31     32    1
   30     31     33    1
   31      1     31    1
   32      8     31    1
   33     34     35    2
   34     34     36    2
   35      2     34    1
   36     37     38    2
   37     37     39    2
   38      7     37    1
   39     16     40    1
   40     16     41    1
   41     17     42    1
   42     17     43    1
   43      5     44    1
   44     15     44    1
   45     10     44    1
   46     18     44    1
   47     24     44    1
   48     29     44    1
   49     25     44    1
   50     28     44    1
   51     20     44    1
   52     21     44    1
   53      3     45    1
   54     12     46    1
   55     32     47    1
   56     32     48    1
   57     32     49    1
   58     33     50    1
   59     33     51    1
   60     33     52    1
   61     40     53    1
   62     40     54    1
   63     40     55    1
   64     41     56    1
   65     41     57    1
   66     41     58    1
   67     42     59    1
   68     42     60    1
   69     42     61    1
   70     43     62    1
   71     43     63    1
   72     43     64    1
#
#	File Created by: Spartan '14 Export
#

@<TRIPOS>MOLECULE
*****
53 61
SMALL
USER_CHARGES


@<TRIPOS>ATOM
    1   C1        -1.569474671    -3.507601194    -0.242709274     C.2   1  *****   -0.144768
    2   C2        -2.946692088    -3.504209197    -0.094734449     C.2   1  *****    0.046944
    3   C3        -3.601421187    -2.259860518    -0.115570396     C.2   1  *****   -0.347629
    4   C4        -2.869341965    -1.075263123    -0.272660193     C.2   1  *****    0.397264
    5   N5        -1.540419021    -1.095666995    -0.410136783       N   1  *****   -0.418865
    6   C6        -0.960535728    -2.267229674    -0.402874598     C.2   1  *****    0.228964
    7   C7         2.159048634    -4.000324196     0.108783876     C.2   1  *****    0.028095
    8   C8         0.823882566    -3.737707348    -0.146575732     C.2   1  *****   -0.155814
    9   C9         0.478151888    -2.404822509    -0.347438146     C.2   1  *****    0.314680
   10   N10        1.272425363    -1.364553580    -0.303847755       N   1  *****   -0.534652
   11   C11        2.563036283    -1.602861793    -0.036595479     C.2   1  *****    0.485593
   12   C12        3.038347860    -2.904286631     0.162517636     C.2   1  *****   -0.339822
   13   C13       -3.320274832     0.362629155    -0.122101481     C.2   1  *****    0.256242
   14   C14        3.262093203    -0.291488219     0.244845092     C.2   1  *****    0.151873
   15   O15       -2.477277643     1.149483175     0.330266382       O   1  *****   -0.457182
   16   N16       -4.567613068     0.753514156    -0.433365665     N.3   1  *****    0.207685
   17   N17        4.556345590    -0.095852664    -0.046446850     N.3   1  *****    0.255081
   18   O18        2.560004010     0.574259726     0.785794296       O   1  *****   -0.420724
   19   N19       -0.425851565     0.384342590     2.918774812       N   1  *****    0.827082
   20   O20       -0.193140823    -0.505274375     2.018297062       O   1  *****   -0.593089
   21   O21       -0.355146087     1.591309392     2.523747545       O   1  *****   -0.556408
   22   O22       -0.694441945     0.078423389     4.060004254       O   1  *****   -0.402064
   23   N23        0.456901509     3.920001928     0.152752988       N   1  *****    0.885216
   24   O24       -0.614823354     3.345643541    -0.262382016       O   1  *****   -0.586730
   25   O25        1.373770754     3.127383891     0.559617725       O   1  *****   -0.570602
   26   O26        0.584811485     5.122676905     0.155115473       O   1  *****   -0.419266
   27   N27        0.652088072     0.970936853    -2.704812337       N   1  *****    0.819781
   28   O28       -0.526115500     0.848328687    -2.224564046       O   1  *****   -0.568897
   29   O29        1.575150914     1.189933886    -1.846320674       O   1  *****   -0.561527
   30   O30        0.882137178     0.869517871    -3.891448875       O   1  *****   -0.413356
   31   C31       -0.464184197    -4.539849873    -0.117942537     C.2   1  *****    0.440726
   32   O32       -0.582785697    -5.733869084     0.014446478     O.2   1  *****   -0.381257
   33   H33       -3.506253801    -4.418681202     0.072337296       H   1  *****    0.136680
   34   H34        2.515989093    -5.005325261     0.308126695       H   1  *****    0.143756
   35   C35       -4.947642921     2.132641920    -0.156157912     C.3   1  *****   -0.563288
   36   C36       -5.507636827    -0.008558248    -1.234854188     C.3   1  *****   -0.607734
   37   C37        5.159133737     1.183817221     0.301865674     C.3   1  *****   -0.550776
   38   C38        5.356965730    -0.956980005    -0.895872460     C.3   1  *****   -0.619234
   39   Nd39       0.119329808     1.077507572     0.155392962      Nd   1  *****    1.836813
   40   H40       -4.671473051    -2.226191183     0.046788931       H   1  *****    0.175359
   41   H41        4.077783605    -3.070489686     0.417902791       H   1  *****    0.172310
   42   H42       -4.241647016     2.563021266     0.549908557       H   1  *****    0.219118
   43   H43       -4.931425511     2.723967196    -1.077725709       H   1  *****    0.203111
   44   H44       -5.958201232     2.147736400     0.261094173       H   1  *****    0.188443
   45   H45       -5.014758596    -0.844214793    -1.728019373       H   1  *****    0.187411
   46   H46       -6.344359982    -0.378763295    -0.631326335       H   1  *****    0.187458
   47   H47       -5.910967647     0.644678025    -2.013983355       H   1  *****    0.220025
   48   H48        6.110208159     1.010608210     0.814180388       H   1  *****    0.178506
   49   H49        5.342194818     1.768093732    -0.605681428       H   1  *****    0.198206
   50   H50        4.477321768     1.734742940     0.945278604       H   1  *****    0.226176
   51   H51        6.181239868    -1.410255234    -0.333811377       H   1  *****    0.190147
   52   H52        4.748119611    -1.739807045    -1.342807648       H   1  *****    0.182965
   53   H53        5.781842035    -0.357590648    -1.706724262       H   1  *****    0.221973


@<TRIPOS>BOND
    1      1      2    1
    2      1      6    2
    3      2      3    2
    4      3      4    1
    5      4      5    2
    6      5      6    1
    7      7      8    1
    8      7     12    2
    9      8      9    2
   10      9     10    1
   11     10     11    2
   12     11     12    1
   13      6      9    1
   14      4     13    1
   15     11     14    1
   16     13     15    2
   17     13     16    1
   18     14     17    1
   19     14     18    2
   20     19     20    2
   21     19     21    2
   22     19     22    1
   23     23     24    2
   24     23     25    2
   25     23     26    1
   26     27     28    2
   27     27     29    2
   28     27     30    1
   29     31     32    2
   30      1     31    1
   31      8     31    1
   32      2     33    1
   33      7     34    1
   34     16     35    1
   35     16     36    1
   36     17     37    1
   37     17     38    1
   38      5     39    1
   39     15     39    1
   40     10     39    1
   41     18     39    1
   42     24     39    1
   43     29     39    1
   44     25     39    1
   45     28     39    1
   46     20     39    1
   47     21     39    1
   48      3     40    1
   49     12     41    1
   50     35     42    1
   51     35     43    1
   52     35     44    1
   53     36     45    1
   54     36     46    1
   55     36     47    1
   56     37     48    1
   57     37     49    1
   58     37     50    1
   59     38     51    1
   60     38     52    1
   61     38     53    1
#
#	File Created by: Spartan '14 Export
#

@<TRIPOS>MOLECULE
*****
61 69
SMALL
USER_CHARGES


@<TRIPOS>ATOM
    1   C1         3.104049231     1.211449751     0.211096453     C.2   1  *****   -0.488238
    2   C2         3.194699919     2.592329695     0.466955370     C.2   1  *****    0.652297
    3   C3         1.976094258     3.324368493     0.522481234     C.2   1  *****   -0.601757
    4   C4         0.752383131     2.708383694     0.336876256     C.2   1  *****    0.516303
    5   N5         0.671063809     1.381553257     0.130734038       N   1  *****   -0.532057
    6   C6         1.799876270     0.725506061     0.101972505     C.2   1  *****    0.348729
    7   C7         3.217312862    -2.559244248    -0.474235795     C.2   1  *****    0.644325
    8   C8         3.117330100    -1.178933948    -0.215644195     C.2   1  *****   -0.478503
    9   C9         1.808225444    -0.710975069    -0.075925876     C.2   1  *****    0.340934
   10   N10        0.684708123    -1.376117497    -0.102460942       N   1  *****   -0.548883
   11   C11        0.774811910    -2.696988110    -0.340770368     C.2   1  *****    0.554263
   12   C12        2.002296233    -3.298037214    -0.543520641     C.2   1  *****   -0.613980
   13   C13       -0.636984035     3.282469687     0.505387257     C.2   1  *****    0.195284
   14   C14       -0.610648766    -3.279379126    -0.511156819     C.2   1  *****    0.164718
   15   O15       -1.489374133     2.503681001     0.945282235       O   1  *****   -0.393194
   16   N16       -0.905833184     4.569908730     0.224986117     N.3   1  *****    0.203063
   17   N17       -0.867883501    -4.575735255    -0.262323385     N.3   1  *****    0.212148
   18   O18       -1.474165091    -2.497748070    -0.924069296       O   1  *****   -0.386662
   19   N19       -1.013798634     1.189815870    -2.596475531       N   1  *****    0.873085
   20   O20       -0.600645567     0.027632493    -2.263870709       O   1  *****   -0.592015
   21   O21       -1.737965372     1.784813430    -1.726178383       O   1  *****   -0.583593
   22   O22       -0.719821803     1.704675158    -3.655748719       O   1  *****   -0.430557
   23   N23       -4.438398308    -0.009319205     0.010914894       N   1  *****    0.889770
   24   O24       -3.752236577     0.649169780     0.870728215       O   1  *****   -0.601103
   25   O25       -3.749969159    -0.666294681    -0.848167058       O   1  *****   -0.602970
   26   O26       -5.647425460    -0.010237071     0.010058883       O   1  *****   -0.407221
   27   N27       -1.015516782    -1.193834544     2.623969568       N   1  *****    0.869953
   28   O28       -0.612572072    -0.027521041     2.292485173       O   1  *****   -0.592842
   29   O29       -1.729176641    -1.796860283     1.750738786       O   1  *****   -0.581837
   30   O30       -0.721467490    -1.704520867     3.685229456       O   1  *****   -0.430053
   31   C31        4.021102801     0.033735155    -0.058013699     C.2   1  *****    0.653925
   32   O32        5.228167203     0.065227402    -0.174158738     O.2   1  *****   -0.449244
   33   O33        4.270973656     3.337570526     0.688176556     O.3   1  *****   -0.265382
   34   C34        5.536409484     2.746713911     0.994892286     C.3   1  *****   -0.365943
   35   O35        4.292632715    -3.309765368    -0.679353543     O.3   1  *****   -0.250066
   36   C36        5.612854991    -2.764380541    -0.678867237     C.3   1  *****   -0.400880
   37   C37       -0.091648660     5.425817483    -0.619220985     C.3   1  *****   -0.606686
   38   C38       -2.261012021     5.040982490     0.474865710     C.3   1  *****   -0.595045
   39   C39       -2.220997864    -5.050818139    -0.516784882     C.3   1  *****   -0.588879
   40   C40       -0.041915801    -5.449092153     0.551755282     C.3   1  *****   -0.607727
   41   Nd41      -1.579211977    -0.005606827     0.013137615      Nd   1  *****    1.854078
   42   H42        2.055467178     4.378969168     0.752824502       H   1  *****    0.221608
   43   H43        2.091358484    -4.349626086    -0.783158543       H   1  *****    0.221578
   44   H44        6.192537182     3.585867792     1.220813756       H   1  *****    0.191050
   45   H45        5.444428940     2.099676052     1.871764003       H   1  *****    0.169058
   46   H46        5.915644438     2.166181725     0.156382609       H   1  *****    0.187315
   47   H47        6.265610462    -3.611663523    -0.884181694       H   1  *****    0.197341
   48   H48        5.719504353    -2.004700980    -1.453034792       H   1  *****    0.194937
   49   H49        5.851626387    -2.328139591     0.291391974       H   1  *****    0.184636
   50   H50        0.723085144     4.865938329    -1.073001925       H   1  *****    0.188199
   51   H51       -0.715503267     5.817093752    -1.428470971       H   1  *****    0.222865
   52   H52        0.315151064     6.272694209    -0.055087988       H   1  *****    0.186962
   53   H53       -2.868604514     4.947003982    -0.431924471       H   1  *****    0.214665
   54   H54       -2.712478182     4.438504281     1.259691075       H   1  *****    0.219116
   55   H55       -2.221654032     6.090299957     0.777828389       H   1  *****    0.198023
   56   H56       -2.174958927    -6.092052706    -0.845374545       H   1  *****    0.195694
   57   H57       -2.824701201    -4.983452121     0.394883584       H   1  *****    0.213133
   58   H58       -2.681093931    -4.432961339    -1.284484366       H   1  *****    0.219243
   59   H59        0.357811631    -6.282467933    -0.036978567       H   1  *****    0.188060
   60   H60        0.778505140    -4.899000177     1.007089268       H   1  *****    0.186807
   61   H61       -0.654530193    -5.859785449     1.360093800       H   1  *****    0.222151


@<TRIPOS>BOND
    1      1      2    1
    2      1      6    2
    3      2      3    2
    4      3      4    1
    5      4      5    2
    6      5      6    1
    7      7      8    1
    8      7     12    2
    9      8      9    2
   10      9     10    1
   11     10     11    2
   12     11     12    1
   13      6      9    1
   14      4     13    1
   15     11     14    1
   16     13     15    2
   17     13     16    1
   18     14     17    1
   19     14     18    2
   20     19     20    2
   21     19     21    2
   22     19     22    1
   23     23     24    2
   24     23     25    2
   25     23     26    1
   26     27     28    2
   27     27     29    2
   28     27     30    1
   29     31     32    2
   30      1     31    1
   31      8     31    1
   32     33     34    1
   33      2     33    1
   34     35     36    1
   35      7     35    1
   36     16     37    1
   37     16     38    1
   38     17     39    1
   39     17     40    1
   40      5     41    1
   41     15     41    1
   42     10     41    1
   43     18     41    1
   44     24     41    1
   45     29     41    1
   46     25     41    1
   47     28     41    1
   48     20     41    1
   49     21     41    1
   50      3     42    1
   51     12     43    1
   52     34     44    1
   53     34     45    1
   54     34     46    1
   55     36     47    1
   56     36     48    1
   57     36     49    1
   58     37     50    1
   59     37     51    1
   60     37     52    1
   61     38     53    1
   62     38     54    1
   63     38     55    1
   64     39     56    1
   65     39     57    1
   66     39     58    1
   67     40     59    1
   68     40     60    1
   69     40     61    1
#
#	File Created by: Spartan '14 Export
#

@<TRIPOS>MOLECULE
*****
53 61
SMALL
USER_CHARGES


@<TRIPOS>ATOM
    1   C1         3.395667339     0.145231851     0.298963376     C.2   1  *****   -0.191552
    2   C2         3.940025958     1.412714304     0.159970832     C.2   1  *****    0.247289
    3   C3         3.069367917     2.520501656     0.169808021     C.2   1  *****   -0.390811
    4   C4         1.694080402     2.326513276     0.320916350     C.2   1  *****    0.406362
    5   N5         1.172847915     1.103015455     0.459066399       N   1  *****   -0.435959
    6   C6         2.012608028     0.102659265     0.448866634     C.2   1  *****    0.241060
    7   C7         2.299278266    -3.455941870    -0.020089162     C.2   1  *****    0.235046
    8   C8         2.627925309    -2.129711563     0.213848465     C.2   1  *****   -0.203640
    9   C9         1.549017128    -1.268406236     0.396960116     C.2   1  *****    0.319213
   10   N10        0.273566445    -1.555366876     0.357777557       N   1  *****   -0.542452
   11   C11       -0.045066990    -2.831858816     0.105323868     C.2   1  *****    0.496168
   12   C12        0.935980801    -3.807224281    -0.078554144     C.2   1  *****   -0.392479
   13   C13        0.569686422     3.327865140     0.157568625     C.2   1  *****    0.259492
   14   C14       -1.526917832    -2.933670797    -0.182006251     C.2   1  *****    0.167747
   15   O15       -0.482311068     2.878158566    -0.316221508       O   1  *****   -0.455787
   16   N16        0.717010649     4.623267225     0.477090779     N.3   1  *****    0.223314
   17   N17       -2.236282218    -4.033213509     0.105970430     N.3   1  *****    0.261894
   18   O18       -2.022329761    -1.940279779    -0.731417046       O   1  *****   -0.424093
   19   N19       -0.597968202     0.628527020    -2.904723485       N   1  *****    0.831296
   20   O20        0.112405650     0.104450696    -1.966467287       O   1  *****   -0.597177
   21   O21       -1.742775218     1.052460475    -2.547136786       O   1  *****   -0.555866
   22   O22       -0.189286227     0.707212910    -4.041807612       O   1  *****   -0.400554
   23   N23       -4.220907440     1.358994936    -0.293665725       N   1  *****    0.886689
   24   O24       -3.264270963     2.140373077     0.058405182       O   1  *****   -0.588404
   25   O25       -3.868456913     0.157400169    -0.556329243       O   1  *****   -0.574207
   26   O26       -5.367654797     1.734140480    -0.369137738       O   1  *****   -0.416372
   27   N27       -1.634728756     0.073718526     2.724102125       N   1  *****    0.821821
   28   O28       -1.107234964     1.120358018     2.211611422       O   1  *****   -0.572209
   29   O29       -2.152342260    -0.745522778     1.888432477       O   1  *****   -0.566750
   30   O30       -1.630951328    -0.134989118     3.918489822       O   1  *****   -0.409802
   31   C31        3.888751253    -1.285177020     0.186036556     C.2   1  *****    0.483263
   32   O32        5.026336583    -1.664072222     0.067996671     O.2   1  *****   -0.383405
   33   Cl33       5.630041029     1.661667054    -0.073690683      Cl   1  *****   -0.028253
   34   Cl34       3.499502069    -4.662135550    -0.296917215      Cl   1  *****   -0.023213
   35   C35       -0.381681803     5.535478358     0.185982209     C.3   1  *****   -0.584014
   36   C36        1.791510651     5.170737836     1.285281762     C.3   1  *****   -0.610291
   37   C37       -3.645808301    -4.064165852    -0.263704357     C.3   1  *****   -0.571647
   38   C38       -1.786442428    -5.115270449     0.962068728     C.3   1  *****   -0.615781
   39   Nd39      -1.496322859     0.502323905    -0.151054922      Nd   1  *****    1.848247
   40   H40        3.484660167     3.506711952     0.009068217       H   1  *****    0.181907
   41   H41        0.671328185    -4.828094303    -0.322153951       H   1  *****    0.181374
   42   H42       -1.056184009     5.067310625    -0.526831530       H   1  *****    0.226933
   43   H43       -0.937486262     5.764593695     1.101141856       H   1  *****    0.207986
   44   H44        0.024118946     6.462327195    -0.228608854       H   1  *****    0.193031
   45   H45        2.358241517     4.380356047     1.773795115       H   1  *****    0.188912
   46   H46        2.467485848     5.791963553     0.686673933       H   1  *****    0.190589
   47   H47        1.355394075     5.797529526     2.068428767       H   1  *****    0.220521
   48   H48       -3.870902817    -5.017809525    -0.749827639       H   1  *****    0.184849
   49   H49       -4.267680068    -3.961355424     0.631173540       H   1  *****    0.204241
   50   H50       -3.856539726    -3.237293513    -0.937636925       H   1  *****    0.230090
   51   H51       -1.679894423    -6.048255356     0.397324381       H   1  *****    0.191097
   52   H52       -0.840797220    -4.869445590     1.440644350       H   1  *****    0.181939
   53   H53       -2.528839386    -5.273271010     1.749992688       H   1  *****    0.222349


@<TRIPOS>BOND
    1      1      2    1
    2      1      6    2
    3      2      3    2
    4      3      4    1
    5      4      5    2
    6      5      6    1
    7      7      8    1
    8      7     12    2
    9      8      9    2
   10      9     10    1
   11     10     11    2
   12     11     12    1
   13      6      9    1
   14      4     13    1
   15     11     14    1
   16     13     15    2
   17     13     16    1
   18     14     17    1
   19     14     18    2
   20     19     20    2
   21     19     21    2
   22     19     22    1
   23     23     24    2
   24     23     25    2
   25     23     26    1
   26     27     28    2
   27     27     29    2
   28     27     30    1
   29     31     32    2
   30      1     31    1
   31      8     31    1
   32      2     33    1
   33      7     34    1
   34     16     35    1
   35     16     36    1
   36     17     37    1
   37     17     38    1
   38      5     39    1
   39     15     39    1
   40     10     39    1
   41     18     39    1
   42     24     39    1
   43     29     39    1
   44     25     39    1
   45     28     39    1
   46     20     39    1
   47     21     39    1
   48      3     40    1
   49     12     41    1
   50     35     42    1
   51     35     43    1
   52     35     44    1
   53     36     45    1
   54     36     46    1
   55     36     47    1
   56     37     48    1
   57     37     49    1
   58     37     50    1
   59     38     51    1
   60     38     52    1
   61     38     53    1
#
#	File Created by: Spartan '14 Export
#

@<TRIPOS>MOLECULE
*****
53 61
SMALL
USER_CHARGES


@<TRIPOS>ATOM
    1   C1        -2.063348711    -2.988791649    -0.275682196     C.2   1  *****   -0.356011
    2   C2        -3.411537588    -2.719427247    -0.118663285     C.2   1  *****    0.520222
    3   C3        -3.858900730    -1.388187286    -0.126266801     C.2   1  *****   -0.498326
    4   C4        -2.935969459    -0.354170776    -0.294344715     C.2   1  *****    0.391264
    5   N5        -1.631413447    -0.606224286    -0.450653387       N   1  *****   -0.428193
    6   C6        -1.264993363    -1.859640573    -0.438024994     C.2   1  *****    0.263227
    7   C7         1.533196625    -4.056274209     0.045151559     C.2   1  *****    0.531149
    8   C8         0.246372893    -3.609164245    -0.197708828     C.2   1  *****   -0.396721
    9   C9         0.134352076    -2.234355470    -0.388357440     C.2   1  *****    0.393555
   10   N10        1.083318618    -1.332879352    -0.350727364       N   1  *****   -0.583340
   11   C11        2.321657663    -1.775373848    -0.090618777     C.2   1  *****    0.511683
   12   C12        2.587812221    -3.130769630     0.101387057     C.2   1  *****   -0.529261
   13   C13       -3.133204241     1.139256817    -0.135318445     C.2   1  *****    0.288621
   14   C14        3.233569664    -0.602755021     0.192756062     C.2   1  *****    0.201919
   15   O15       -2.159313542     1.761158662     0.310221105       O   1  *****   -0.464482
   16   N16       -4.294371433     1.742913175    -0.435105587     N.3   1  *****    0.214672
   17   N17        4.537218904    -0.625608542    -0.114462291     N.3   1  *****    0.247287
   18   O18        2.693088694     0.357102175     0.760321010       O   1  *****   -0.438189
   19   N19       -0.278486378     0.634911331     2.896363687       N   1  *****    0.848830
   20   O20       -0.236965422    -0.261044756     1.972703598       O   1  *****   -0.605981
   21   O21        0.026702994     1.812787958     2.525376024       O   1  *****   -0.565199
   22   O22       -0.590739524     0.360862817     4.034052099       O   1  *****   -0.404141
   23   N23        1.101351892     4.033997117     0.165672272       N   1  *****    0.885450
   24   O24       -0.051300224     3.624133410    -0.226855298       O   1  *****   -0.590655
   25   O25        1.908285206     3.111098296     0.530461067       O   1  *****   -0.568129
   26   O26        1.397440412     5.205999543     0.186349496       O   1  *****   -0.416373
   27   N27        0.891130186     1.090873701    -2.718098331       N   1  *****    0.837680
   28   O28       -0.292781929     1.177512168    -2.245398627       O   1  *****   -0.581186
   29   O29        1.833163479     1.143045065    -1.852628929       O   1  *****   -0.572078
   30   O30        1.108561685     0.951667480    -3.903006551       O   1  *****   -0.413802
   31   C31       -1.151919167    -4.193591227    -0.154694274     C.2   1  *****    0.599805
   32   O32       -1.465552978    -5.348635616    -0.021253705     O.2   1  *****   -0.384203
   33   F33       -4.294939003    -3.683896341     0.078531929       F   1  *****   -0.155805
   34   F34        1.793959593    -5.332112922     0.271489773       F   1  *****   -0.151343
   35   C35       -4.426944767     3.167755550    -0.158161633     C.3   1  *****   -0.575395
   36   C36       -5.388375254     1.138159040    -1.172620450     C.3   1  *****   -0.630204
   37   C37        5.350746796     0.528008528     0.247256827     C.3   1  *****   -0.568111
   38   C38        5.163455900    -1.575061243    -1.016149212     C.3   1  *****   -0.642444
   39   Nd39       0.369529255     1.269833980     0.140673292      Nd   1  *****    1.855035
   40   H40       -4.909457785    -1.204563784     0.055787891       H   1  *****    0.220027
   41   H41        3.577869737    -3.490426086     0.351892755       H   1  *****    0.223448
   42   H42       -3.581242709     3.494339482     0.441930780       H   1  *****    0.225860
   43   H43       -4.438746307     3.731728066    -1.096358173       H   1  *****    0.204189
   44   H44       -5.363365193     3.347021181     0.378162124       H   1  *****    0.193502
   45   H45       -5.060025843     0.242215532    -1.696104699       H   1  *****    0.198277
   46   H46       -6.231765711     0.892669269    -0.516510999       H   1  *****    0.194177
   47   H47       -5.737856099     1.852616524    -1.922786533       H   1  *****    0.226566
   48   H48        6.303963104     0.180364586     0.654888742       H   1  *****    0.186789
   49   H49        5.539511252     1.145559674    -0.636865585       H   1  *****    0.207033
   50   H50        4.818366810     1.123335203     0.984926193       H   1  *****    0.226398
   51   H51        5.937166074    -2.153850578    -0.500044731       H   1  *****    0.198606
   52   H52        4.428773001    -2.252875340    -1.445424896       H   1  *****    0.195528
   53   H53        5.633516391    -1.026921324    -1.838520317       H   1  *****    0.228772


@<TRIPOS>BOND
    1      1      2    1
    2      1      6    2
    3      2      3    2
    4      3      4    1
    5      4      5    2
    6      5      6    1
    7      7      8    1
    8      7     12    2
    9      8      9    2
   10      9     10    1
   11     10     11    2
   12     11     12    1
   13      6      9    1
   14      4     13    1
   15     11     14    1
   16     13     15    2
   17     13     16    1
   18     14     17    1
   19     14     18    2
   20     19     20    2
   21     19     21    2
   22     19     22    1
   23     23     24    2
   24     23     25    2
   25     23     26    1
   26     27     28    2
   27     27     29    2
   28     27     30    1
   29     31     32    2
   30      1     31    1
   31      8     31    1
   32      2     33    1
   33      7     34    1
   34     16     35    1
   35     16     36    1
   36     17     37    1
   37     17     38    1
   38      5     39    1
   39     15     39    1
   40     10     39    1
   41     18     39    1
   42     24     39    1
   43     29     39    1
   44     25     39    1
   45     28     39    1
   46     20     39    1
   47     21     39    1
   48      3     40    1
   49     12     41    1
   50     35     42    1
   51     35     43    1
   52     35     44    1
   53     36     45    1
   54     36     46    1
   55     36     47    1
   56     37     48    1
   57     37     49    1
   58     37     50    1
   59     38     51    1
   60     38     52    1
   61     38     53    1
#
#	File Created by: Spartan '14 Export
#

@<TRIPOS>MOLECULE
*****
67 75
SMALL
USER_CHARGES


@<TRIPOS>ATOM
    1   C1        -0.662774877    -3.058547153     0.348294819     C.2   1  *****   -0.389329
    2   C2        -1.968357220    -3.485049739     0.127878665     C.2   1  *****    0.392725
    3   C3        -2.939899362    -2.474644446    -0.037000509     C.2   1  *****   -0.439229
    4   C4        -2.603231770    -1.121221566     0.046673794     C.2   1  *****    0.488181
    5   N5        -1.336815907    -0.735448202     0.259538830       N   1  *****   -0.541333
    6   C6        -0.444859097    -1.685758117     0.367592168     C.2   1  *****    0.339542
    7   C7         3.070093406    -2.478218470     0.685363241     C.2   1  *****    0.385809
    8   C8         1.687894295    -2.591370403     0.577935656     C.2   1  *****   -0.399983
    9   C9         0.971310775    -1.408844409     0.440323878     C.2   1  *****    0.325151
   10   N10        1.449981358    -0.197854324     0.327821350       N   1  *****   -0.451201
   11   C11        2.780494975    -0.059628830     0.422670716     C.2   1  *****    0.389657
   12   C12        3.602491496    -1.171710327     0.626759437     C.2   1  *****   -0.396301
   13   C13       -3.446092895     0.099101622    -0.263975161     C.2   1  *****    0.163503
   14   C14        3.120460941     1.419361721     0.417547061     C.2   1  *****    0.213032
   15   O15       -2.836342566     1.070975818    -0.722543856       O   1  *****   -0.376454
   16   N16       -4.781315155     0.098751785    -0.093486153     N.3   1  *****    0.218341
   17   N17        4.363852040     1.859116865     0.145196361     N.3   1  *****    0.181592
   18   O18        2.202592413     2.187025699     0.723180078       O   1  *****   -0.383018
   19   N19        0.793917861     0.918504051    -2.580737134       N   1  *****    0.867524
   20   O20       -0.248983026     0.370153343    -2.080670106       O   1  *****   -0.596075
   21   O21        1.272960447     1.895303320    -1.913277962       O   1  *****   -0.575446
   22   O22        1.304443391     0.518558180    -3.607046921       O   1  *****   -0.432954
   23   N23       -0.822672971     4.507601723    -0.492924035       N   1  *****    0.914909
   24   O24        0.020095635     4.095604675     0.382491623       O   1  *****   -0.607940
   25   O25       -1.438350926     3.583099293    -1.133850580       O   1  *****   -0.610075
   26   O26       -1.021096061     5.681885781    -0.698464577       O   1  *****   -0.413302
   27   N27       -1.255389884     1.403929673     2.734050264       N   1  *****    0.893486
   28   O28       -0.068413078     1.105711350     2.357685169       O   1  *****   -0.611417
   29   O29       -2.006613234     1.903848062     1.829041306       O   1  *****   -0.587978
   30   O30       -1.643773049     1.206443260     3.865718718       O   1  *****   -0.429276
   31   C31        0.686891885    -3.724798011     0.510319155     C.2   1  *****    0.617019
   32   O32        0.918612404    -4.914359365     0.551951633     O.2   1  *****   -0.449775
   33   C33       -2.358836094    -4.942790130     0.065552810     C.3   1  *****   -0.208311
   34   O34       -3.546076521    -5.167421453    -0.646451260     O.3   1  *****   -0.230967
   35   C35       -3.361632964    -5.194385037    -2.048880264     C.3   1  *****   -0.334453
   36   C36        3.974208112    -3.666844185     0.912706664     C.3   1  *****   -0.185549
   37   O37        5.306411819    -3.430951862     0.542387582     O.3   1  *****   -0.247407
   38   C38        5.534514972    -3.570809771    -0.845354863     C.3   1  *****   -0.333840
   39   C39       -5.522091381     1.274847374    -0.526556270     C.3   1  *****   -0.569265
   40   C40       -5.522191749    -0.845910223     0.721603536     C.3   1  *****   -0.603999
   41   C41        5.381122205     1.107222888    -0.566709820     C.3   1  *****   -0.587061
   42   C42        4.621264435     3.284450312     0.294649097     C.3   1  *****   -0.580530
   43   Nd43      -0.344096062     1.731921364    -0.010978052      Nd   1  *****    1.844405
   44   H44       -3.950483104    -2.789014149    -0.264095990       H   1  *****    0.203205
   45   H45        4.672761628    -1.068096273     0.747179534       H   1  *****    0.195613
   46   H46       -2.536081367    -5.297669231     1.088052169       H   1  *****    0.152659
   47   H47       -1.522840416    -5.533250700    -0.333795625       H   1  *****    0.158719
   48   H48       -3.008349955    -4.230717568    -2.440433787       H   1  *****    0.140105
   49   H49       -2.644725937    -5.975021089    -2.337907225       H   1  *****    0.151185
   50   H50       -4.333134537    -5.421388309    -2.490049268       H   1  *****    0.169776
   51   H51        3.556079633    -4.549881428     0.409838383       H   1  *****    0.153699
   52   H52        3.985060866    -3.890197165     1.986329907       H   1  *****    0.153266
   53   H53        4.951724114    -2.850569975    -1.436664162       H   1  *****    0.130036
   54   H54        6.597342335    -3.388813530    -1.010930900       H   1  *****    0.174157
   55   H55        5.286781445    -4.584753673    -1.187764796       H   1  *****    0.154451
   56   H56       -5.737364190     1.926368888     0.327373443       H   1  *****    0.203476
   57   H57       -4.924414613     1.827957754    -1.247380959       H   1  *****    0.214327
   58   H58       -6.464027426     0.955870466    -0.981112860       H   1  *****    0.188918
   59   H59       -6.157909777    -1.496376977     0.109600336       H   1  *****    0.183746
   60   H60       -4.851276575    -1.456297364     1.322128386       H   1  *****    0.182079
   61   H61       -6.165156885    -0.286600604     1.407729414       H   1  *****    0.221496
   62   H62        6.199494106     0.798967831     0.094577866       H   1  *****    0.183155
   63   H63        4.953143598     0.231008758    -1.050148867       H   1  *****    0.186105
   64   H64        5.796599951     1.744132538    -1.352483769       H   1  *****    0.217823
   65   H65        3.903282470     3.706525047     0.994009861       H   1  *****    0.214580
   66   H66        5.639360031     3.423581327     0.667631229       H   1  *****    0.197108
   67   H67        4.516278795     3.798330779    -0.667247386       H   1  *****    0.207909


@<TRIPOS>BOND
    1      1      2    1
    2      1      6    2
    3      2      3    2
    4      3      4    1
    5      4      5    2
    6      5      6    1
    7      7      8    1
    8      7     12    2
    9      8      9    2
   10      9     10    1
   11     10     11    2
   12     11     12    1
   13      6      9    1
   14      4     13    1
   15     11     14    1
   16     13     15    2
   17     13     16    1
   18     14     17    1
   19     14     18    2
   20     19     20    2
   21     19     21    2
   22     19     22    1
   23     23     24    2
   24     23     25    2
   25     23     26    1
   26     27     28    2
   27     27     29    2
   28     27     30    1
   29     31     32    2
   30      1     31    1
   31      8     31    1
   32     33     34    1
   33     34     35    1
   34      2     33    1
   35     36     37    1
   36     37     38    1
   37      7     36    1
   38     16     39    1
   39     16     40    1
   40     17     41    1
   41     17     42    1
   42      5     43    1
   43     15     43    1
   44     10     43    1
   45     18     43    1
   46     24     43    1
   47     29     43    1
   48     25     43    1
   49     28     43    1
   50     20     43    1
   51     21     43    1
   52      3     44    1
   53     12     45    1
   54     33     46    1
   55     33     47    1
   56     35     48    1
   57     35     49    1
   58     35     50    1
   59     36     51    1
   60     36     52    1
   61     38     53    1
   62     38     54    1
   63     38     55    1
   64     39     56    1
   65     39     57    1
   66     39     58    1
   67     40     59    1
   68     40     60    1
   69     40     61    1
   70     41     62    1
   71     41     63    1
   72     41     64    1
   73     42     65    1
   74     42     66    1
   75     42     67    1
#
#	File Created by: Spartan '14 Export
#

@<TRIPOS>MOLECULE
*****
57 65
SMALL
USER_CHARGES


@<TRIPOS>ATOM
    1   C1         2.967428189     1.166456510     0.135779262     C.2   1  *****   -0.213402
    2   C2         3.064290388     2.530816377     0.365929120     C.2   1  *****    0.131132
    3   C3         1.909431267     3.314365568     0.458596649     C.2   1  *****   -0.386688
    4   C4         0.657342915     2.725437612     0.257726303     C.2   1  *****    0.535401
    5   N5         0.553288230     1.412297193     0.032431391       N   1  *****   -0.498723
    6   C6         1.658589913     0.708047316     0.018337209     C.2   1  *****    0.310169
    7   C7         2.994235836    -2.605378259    -0.376422790     C.2   1  *****    0.119085
    8   C8         2.933677458    -1.232025755    -0.190211283     C.2   1  *****   -0.206279
    9   C9         1.637189825    -0.732032625    -0.110000847     C.2   1  *****    0.284704
   10   N10        0.511638514    -1.403004523    -0.132298019       N   1  *****   -0.445595
   11   C11        0.580159355    -2.728474236    -0.288578053     C.2   1  *****    0.480866
   12   C12        1.818765830    -3.360751380    -0.436207627     C.2   1  *****   -0.362957
   13   C13       -0.723979804     3.327973359     0.423015103     C.2   1  *****    0.126304
   14   C14       -0.817284882    -3.300716466    -0.431544322     C.2   1  *****    0.153132
   15   O15       -1.599139257     2.549175402     0.815018988       O   1  *****   -0.374013
   16   N16       -0.955481086     4.630337427     0.194497322     N.3   1  *****    0.223571
   17   N17       -1.076740562    -4.590888953    -0.165135862     N.3   1  *****    0.219932
   18   O18       -1.675692881    -2.513793185    -0.843166275       O   1  *****   -0.387428
   19   N19       -1.172410288     1.084681731    -2.663134451       N   1  *****    0.860566
   20   O20       -0.739091441    -0.050935939    -2.258592290       O   1  *****   -0.597374
   21   O21       -1.907721125     1.715979308    -1.828423630       O   1  *****   -0.579360
   22   O22       -0.886856001     1.536684986    -3.750020767       O   1  *****   -0.410732
   23   N23       -4.599105319     0.032703450     0.106005041       N   1  *****    0.895650
   24   O24       -3.875064377     0.741963611     0.893773493       O   1  *****   -0.603012
   25   O25       -3.943547406    -0.675374805    -0.740913708       O   1  *****   -0.599673
   26   O26       -5.804654671     0.032252094     0.156351946       O   1  *****   -0.396879
   27   N27       -1.035378285    -1.053116928     2.609297415       N   1  *****    0.854150
   28   O28       -0.607826138     0.077210141     2.183636377       O   1  *****   -0.595880
   29   O29       -1.828357074    -1.669013830     1.818458792       O   1  *****   -0.573741
   30   O30       -0.689398453    -1.515185396     3.674663830       O   1  *****   -0.410131
   31   C31        3.885747152    -0.057672945     0.061562264     C.2   1  *****    0.460244
   32   O32        5.064695687    -0.103067076     0.266639118     O.2   1  *****   -0.298810
   33   N33        4.362661633     3.212134764     0.508441230       N   1  *****    0.693507
   34   O34        4.374207439     4.238880794     1.174033431     O.2   1  *****   -0.373720
   35   O35        5.308805016     2.705735747    -0.067604305     O.2   1  *****   -0.349146
   36   N36        4.271452020    -3.316019629    -0.564819662       N   1  *****    0.696858
   37   O37        4.276262189    -4.513352835    -0.309665002     O.2   1  *****   -0.379847
   38   O38        5.209484704    -2.655525610    -0.973199224     O.2   1  *****   -0.346022
   39   C39       -0.094341051     5.518712629    -0.567017466     C.3   1  *****   -0.603800
   40   C40       -2.296569295     5.134466634     0.463711502     C.3   1  *****   -0.572300
   41   C41       -2.429058848    -5.071309845    -0.420553036     C.3   1  *****   -0.588470
   42   C42       -0.243072208    -5.467995239     0.639723388     C.3   1  *****   -0.612519
   43   Nd43      -1.755208155     0.027090980    -0.009908066      Nd   1  *****    1.848878
   44   H44        2.024156585     4.361197242     0.703989350       H   1  *****    0.197235
   45   H45        1.909402657    -4.424617198    -0.606343551       H   1  *****    0.197234
   46   H46        0.713414272     4.970407003    -1.047099521       H   1  *****    0.180598
   47   H47       -0.686662819     5.987602191    -1.358125956       H   1  *****    0.225590
   48   H48        0.322266698     6.309419359     0.066482181       H   1  *****    0.195833
   49   H49       -2.781607647     4.493833776     1.196496369       H   1  *****    0.219218
   50   H50       -2.219959444     6.155611954     0.844706300       H   1  *****    0.196648
   51   H51       -2.892324008     5.133155621    -0.455096244       H   1  *****    0.210200
   52   H52       -2.377009244    -6.109243049    -0.757978053       H   1  *****    0.200944
   53   H53       -3.029745133    -5.016535286     0.493547329       H   1  *****    0.214085
   54   H54       -2.893967459    -4.449893167    -1.182273991       H   1  *****    0.223302
   55   H55        0.560297621    -4.916775713     1.123967184       H   1  *****    0.184677
   56   H56       -0.859675170    -5.904995579     1.430231156       H   1  *****    0.230016
   57   H57        0.177411501    -6.282403190     0.039728922       H   1  *****    0.196774


@<TRIPOS>BOND
    1      1      2    1
    2      1      6    2
    3      2      3    2
    4      3      4    1
    5      4      5    2
    6      5      6    1
    7      7      8    1
    8      7     12    2
    9      8      9    2
   10      9     10    1
   11     10     11    2
   12     11     12    1
   13      6      9    1
   14      4     13    1
   15     11     14    1
   16     13     15    2
   17     13     16    1
   18     14     17    1
   19     14     18    2
   20     19     20    2
   21     19     21    2
   22     19     22    1
   23     23     24    2
   24     23     25    2
   25     23     26    1
   26     27     28    2
   27     27     29    2
   28     27     30    1
   29     31     32    2
   30      1     31    1
   31      8     31    1
   32     33     34    2
   33     33     35    2
   34      2     33    1
   35     36     37    2
   36     36     38    2
   37      7     36    1
   38     16     39    1
   39     16     40    1
   40     17     41    1
   41     17     42    1
   42      5     43    1
   43     15     43    1
   44     10     43    1
   45     18     43    1
   46     24     43    1
   47     29     43    1
   48     25     43    1
   49     28     43    1
   50     20     43    1
   51     21     43    1
   52      3     44    1
   53     12     45    1
   54     39     46    1
   55     39     47    1
   56     39     48    1
   57     40     49    1
   58     40     50    1
   59     40     51    1
   60     41     52    1
   61     41     53    1
   62     41     54    1
   63     42     55    1
   64     42     56    1
   65     42     57    1
#
#	File Created by: Spartan '14 Export
#

@<TRIPOS>MOLECULE
*****
56 64
SMALL
USER_CHARGES


@<TRIPOS>ATOM
    1   C1        -0.806893292    -3.647047484     0.189187953     C.2   1  *****    0.082344
    2   C2        -2.144539594    -3.937835072    -0.073542166     C.2   1  *****   -0.076232
    3   C3        -3.029484183    -2.854936542    -0.134742817     C.2   1  *****   -0.360771
    4   C4        -2.590472422    -1.532568865     0.070651568     C.2   1  *****    0.454036
    5   N5        -1.321551984    -1.277070862     0.373644623       N   1  *****   -0.495442
    6   C6        -0.499583550    -2.299319587     0.437764193     C.2   1  *****    0.202561
    7   C7         2.827960701    -3.521557276     0.075432412     C.2   1  *****   -0.080716
    8   C8         1.446400749    -3.460701104     0.255469011     C.2   1  *****    0.100494
    9   C9         0.907230396    -2.183944649     0.477156559     C.2   1  *****    0.108243
   10   N10        1.549699747    -1.042402919     0.455296265       N   1  *****   -0.344100
   11   C11        2.860937130    -1.076788798     0.256652572     C.2   1  *****    0.339492
   12   C12        3.525322909    -2.307914426     0.078294647     C.2   1  *****   -0.336765
   13   C13       -3.293959364    -0.237225870    -0.253738814     C.2   1  *****    0.165561
   14   C14        3.354924011     0.337807109     0.059911679     C.2   1  *****    0.251170
   15   O15       -2.584142923     0.655677473    -0.737485729       O   1  *****   -0.424902
   16   N16       -4.615677095    -0.076808776    -0.063937601     N.3   1  *****    0.235705
   17   N17        4.640849332     0.680859282     0.270931072     N.3   1  *****    0.199820
   18   O18        2.516963268     1.161296041    -0.333065126       O   1  *****   -0.460512
   19   N19       -0.686981612     1.077676446     2.736466582       N   1  *****    0.828876
   20   O20       -1.579881725     1.364294166     1.867912254       O   1  *****   -0.563030
   21   O21        0.482188601     0.854868204     2.269597610       O   1  *****   -0.578745
   22   O22       -0.935100861     1.004236104     3.922272518       O   1  *****   -0.419182
   23   N23       -0.384762808     3.970189578    -0.151254601       N   1  *****    0.895183
   24   O24       -1.306772654     3.198329063    -0.582116374       O   1  *****   -0.569744
   25   O25        0.658404131     3.374218276     0.304617798       O   1  *****   -0.589628
   26   O26       -0.481398543     5.176462500    -0.168103400       O   1  *****   -0.428162
   27   N27        0.422792923     0.391225258    -2.876198683       N   1  *****    0.836018
   28   O28        0.152988790    -0.484488650    -1.973980900       O   1  *****   -0.595356
   29   O29        0.382970061     1.602449291    -2.492469627       O   1  *****   -0.561042
   30   O30        0.696612079     0.068452017    -4.013172453       O   1  *****   -0.413388
   31   N31        0.389394715    -4.359125570     0.129994587     N.3   1  *****    0.009911
   32   C32        0.512628467    -5.778055853    -0.110677441     C.3   1  *****   -0.570122
   33   H33       -2.499917859    -4.940459655    -0.284910462       H   1  *****    0.150618
   34   H34        3.357769391    -4.448871483    -0.113463062       H   1  *****    0.147830
   35   C35       -5.438599352    -0.926446852     0.774063969     C.3   1  *****   -0.612203
   36   C36       -5.225370095     1.179577199    -0.474343300     C.3   1  *****   -0.562206
   37   C37        5.594930399    -0.100597268     1.033057198     C.3   1  *****   -0.598173
   38   C38        5.055501689     2.037446186    -0.055147703     C.3   1  *****   -0.558819
   39   Nd39      -0.116430434     1.120265451    -0.115016453      Nd   1  *****    1.843147
   40   H40       -4.060155523    -3.045671913    -0.408128418       H   1  *****    0.178778
   41   H41        4.589608572    -2.330695314    -0.120747170       H   1  *****    0.175388
   42   H42        0.524425520    -6.349722270     0.823268124       H   1  *****    0.198554
   43   H43       -0.323169613    -6.118629799    -0.725232850       H   1  *****    0.211776
   44   H44        1.435176653    -5.976073651    -0.659968267       H   1  *****    0.212680
   45   H45       -5.892267796    -0.318601710     1.563860887       H   1  *****    0.217397
   46   H46       -6.243538698    -1.392828998     0.194506597       H   1  *****    0.185849
   47   H47       -4.840365428    -1.699615807     1.251142404       H   1  *****    0.183339
   48   H48       -5.401897014     1.818769122     0.397577383       H   1  *****    0.202191
   49   H49       -4.553509634     1.696120038    -1.155746375       H   1  *****    0.223158
   50   H50       -6.180867212     0.973045838    -0.965241951       H   1  *****    0.179555
   51   H51        6.046434062     0.540105556     1.797134981       H   1  *****    0.213037
   52   H52        5.102713073    -0.925834595     1.543950018       H   1  *****    0.186081
   53   H53        6.398366821    -0.489766326     0.396380266       H   1  *****    0.181490
   54   H54        5.126513409     2.645880920     0.853079593       H   1  *****    0.198591
   55   H55        6.035056238     2.006111732    -0.540784023       H   1  *****    0.183918
   56   H56        4.319689629     2.484552791    -0.719276324       H   1  *****    0.216448


@<TRIPOS>BOND
    1      1      2    1
    2      1      6    2
    3      2      3    2
    4      3      4    1
    5      4      5    2
    6      5      6    1
    7      7      8    1
    8      7     12    2
    9      8      9    2
   10      9     10    1
   11     10     11    2
   12     11     12    1
   13      6      9    1
   14      4     13    1
   15     11     14    1
   16     13     15    2
   17     13     16    1
   18     14     17    1
   19     14     18    2
   20     19     20    2
   21     19     21    2
   22     19     22    1
   23     23     24    2
   24     23     25    2
   25     23     26    1
   26     27     28    2
   27     27     29    2
   28     27     30    1
   29     31     32    1
   30      1     31    1
   31      8     31    1
   32      2     33    1
   33      7     34    1
   34     16     35    1
   35     16     36    1
   36     17     37    1
   37     17     38    1
   38      5     39    1
   39     15     39    1
   40     10     39    1
   41     18     39    1
   42     24     39    1
   43     29     39    1
   44     25     39    1
   45     28     39    1
   46     20     39    1
   47     21     39    1
   48      3     40    1
   49     12     41    1
   50     32     42    1
   51     32     43    1
   52     32     44    1
   53     35     45    1
   54     35     46    1
   55     35     47    1
   56     36     48    1
   57     36     49    1
   58     36     50    1
   59     37     51    1
   60     37     52    1
   61     37     53    1
   62     38     54    1
   63     38     55    1
   64     38     56    1
#
#	File Created by: Spartan '14 Export
#

@<TRIPOS>MOLECULE
*****
64 72
SMALL
USER_CHARGES


@<TRIPOS>ATOM
    1   C1         1.466366105    -2.959836080     0.325848642     C.2   1  *****   -0.243674
    2   C2         0.639378626    -4.066647309     0.056309862     C.2   1  *****    0.500587
    3   C3        -0.740085255    -3.822079314    -0.017571140     C.2   1  *****   -0.554538
    4   C4        -1.264913404    -2.528170846     0.172181813     C.2   1  *****    0.448631
    5   N5        -0.487681219    -1.501559630     0.478842084       N   1  *****   -0.558342
    6   C6         0.807823002    -1.747857245     0.555481408     C.2   1  *****    0.297076
    7   C7         4.113273042    -0.464764878     0.180421042     C.2   1  *****    0.457610
    8   C8         3.030524815    -1.342367651     0.382749791     C.2   1  *****   -0.179449
    9   C9         1.789000688    -0.734560092     0.591573538     C.2   1  *****    0.159806
   10   N10        1.500824223     0.550423502     0.554724128       N   1  *****   -0.386999
   11   C11        2.506055549     1.380396502     0.341542821     C.2   1  *****    0.313362
   12   C12        3.824499364     0.907790685     0.166972836     C.2   1  *****   -0.498007
   13   C13       -2.642876992    -2.031039935    -0.186852223     C.2   1  *****    0.230668
   14   C14        1.957001327     2.768628365     0.114956499     C.2   1  *****    0.309862
   15   O15       -2.692636022    -0.911483879    -0.713784605       O   1  *****   -0.438504
   16   N16       -3.745830771    -2.776180368     0.014038489     N.3   1  *****    0.214480
   17   N17        2.699242320     3.875317494     0.322410880     N.3   1  *****    0.186414
   18   O18        0.792551544     2.837449616    -0.301019327       O   1  *****   -0.474864
   19   N19       -1.640266772     0.856422187     2.737497165       N   1  *****    0.825323
   20   O20       -2.455159418     0.397213635     1.865229554       O   1  *****   -0.564994
   21   O21       -0.612547140     1.454359881     2.269692549       O   1  *****   -0.576407
   22   O22       -1.823393787     0.720128956     3.929976011       O   1  *****   -0.419725
   23   N23       -3.231437538     3.024105049    -0.292780367       N   1  *****    0.885070
   24   O24       -3.392395352     1.819799881    -0.685793466       O   1  *****   -0.571813
   25   O25       -2.070742741     3.292807386     0.185586465       O   1  *****   -0.586463
   26   O26       -4.108009246     3.856958310    -0.363888430       O   1  *****   -0.428323
   27   N27       -0.167211311     0.784702807    -2.846251343       N   1  *****    0.853388
   28   O28        0.177508266    -0.017267307    -1.902895881       O   1  *****   -0.602543
   29   O29       -0.998032364     1.689422779    -2.520964970       O   1  *****   -0.567732
   30   O30        0.282378918     0.674962564    -3.968761975       O   1  *****   -0.424336
   31   N31        2.835804769    -2.714814034     0.257253895     N.3   1  *****    0.230807
   32   C32        3.878564706    -3.721853760     0.162429717     C.3   1  *****   -0.580100
   33   O33        1.223014867    -5.259241382    -0.168141708     O.3   1  *****   -0.205149
   34   C34        0.401147086    -6.370878988    -0.489774060     C.3   1  *****   -0.448975
   35   O35        5.332027952    -0.997102577    -0.037190769     O.3   1  *****   -0.204513
   36   C36        6.418607052    -0.124204465    -0.303565528     C.3   1  *****   -0.424235
   37   C37       -3.818959640    -3.912008361     0.911719605     C.3   1  *****   -0.615138
   38   C38       -5.025427497    -2.244326097    -0.431355778     C.3   1  *****   -0.572102
   39   C39        3.906183171     3.925927646     1.123082029     C.3   1  *****   -0.580004
   40   C40        2.126788558     5.164432419    -0.035519070     C.3   1  *****   -0.581400
   41   Nd41      -1.135433247     1.075726639    -0.114998124      Nd   1  *****    1.863665
   42   H42       -1.404179522    -4.626750652    -0.300921511       H   1  *****    0.201667
   43   H43        4.617725420     1.606351837    -0.057594167       H   1  *****    0.192891
   44   H44        4.174939978    -4.077598511     1.155150241       H   1  *****    0.189029
   45   H45        3.506158484    -4.563743788    -0.417912641       H   1  *****    0.203887
   46   H46        4.744917837    -3.286229631    -0.331050906       H   1  *****    0.200556
   47   H47       -0.145679372    -6.200934618    -1.423287077       H   1  *****    0.187851
   48   H48        1.079125690    -7.214151641    -0.613250488       H   1  *****    0.211580
   49   H49       -0.304998258    -6.585434288     0.319497432       H   1  *****    0.182257
   50   H50        6.242592052     0.458928002    -1.213691283       H   1  *****    0.181612
   51   H51        6.597113962     0.551047615     0.540162173       H   1  *****    0.174084
   52   H52        7.286816569    -0.766403491    -0.444498142       H   1  *****    0.204571
   53   H53       -4.576841680    -3.716655301     1.677718040       H   1  *****    0.219595
   54   H54       -4.104162569    -4.823805059     0.373824155       H   1  *****    0.180848
   55   H55       -2.867863131    -4.070458914     1.416189999       H   1  *****    0.189219
   56   H56       -5.574814582    -1.817376637     0.414683104       H   1  *****    0.205528
   57   H57       -4.848267001    -1.460019177    -1.163349013       H   1  *****    0.223803
   58   H58       -5.616877247    -3.051982752    -0.872205118       H   1  *****    0.182240
   59   H59        3.798662116     4.707985610     1.881850640       H   1  *****    0.210607
   60   H60        4.068671890     2.982887040     1.641176368       H   1  *****    0.184971
   61   H61        4.785402058     4.165311969     0.512427830       H   1  *****    0.170538
   62   H62        1.727419996     5.668964206     0.851304228       H   1  *****    0.204885
   63   H63        2.905064106     5.790115664    -0.481862543       H   1  *****    0.188590
   64   H64        1.315720783     5.009462074    -0.743049298       H   1  *****    0.220773


@<TRIPOS>BOND
    1      1      2    1
    2      1      6    2
    3      2      3    2
    4      3      4    1
    5      4      5    2
    6      5      6    1
    7      7      8    1
    8      7     12    2
    9      8      9    2
   10      9     10    1
   11     10     11    2
   12     11     12    1
   13      6      9    1
   14      4     13    1
   15     11     14    1
   16     13     15    2
   17     13     16    1
   18     14     17    1
   19     14     18    2
   20     19     20    2
   21     19     21    2
   22     19     22    1
   23     23     24    2
   24     23     25    2
   25     23     26    1
   26     27     28    2
   27     27     29    2
   28     27     30    1
   29     31     32    1
   30      1     31    1
   31      8     31    1
   32     33     34    1
   33      2     33    1
   34     35     36    1
   35      7     35    1
   36     16     37    1
   37     16     38    1
   38     17     39    1
   39     17     40    1
   40      5     41    1
   41     15     41    1
   42     10     41    1
   43     18     41    1
   44     24     41    1
   45     29     41    1
   46     25     41    1
   47     28     41    1
   48     20     41    1
   49     21     41    1
   50      3     42    1
   51     12     43    1
   52     32     44    1
   53     32     45    1
   54     32     46    1
   55     34     47    1
   56     34     48    1
   57     34     49    1
   58     36     50    1
   59     36     51    1
   60     36     52    1
   61     37     53    1
   62     37     54    1
   63     37     55    1
   64     38     56    1
   65     38     57    1
   66     38     58    1
   67     39     59    1
   68     39     60    1
   69     39     61    1
   70     40     62    1
   71     40     63    1
   72     40     64    1
#
#	File Created by: Spartan '14 Export
#

@<TRIPOS>MOLECULE
*****
56 64
SMALL
USER_CHARGES


@<TRIPOS>ATOM
    1   C1         2.852765111     1.659068729     0.259428982     C.2   1  *****   -0.020186
    2   C2         2.745520338     3.030476649     0.005102861     C.2   1  *****    0.179133
    3   C3         1.465582918     3.588704603    -0.083829893     C.2   1  *****   -0.398104
    4   C4         0.313678302     2.802488529     0.090404175     C.2   1  *****    0.439309
    5   N5         0.413584040     1.509674746     0.373482505       N   1  *****   -0.499355
    6   C6         1.623585027     1.005429412     0.450597493     C.2   1  *****    0.261446
    7   C7         3.663251616    -1.896265810     0.207424648     C.2   1  *****    0.152812
    8   C8         3.271239496    -0.559327053     0.347582329     C.2   1  *****    0.061848
    9   C9         1.885194649    -0.380907146     0.501886431     C.2   1  *****    0.073414
   10   N10        0.941223942    -1.288291607     0.471340283       N   1  *****   -0.329911
   11   C11        1.310032535    -2.551065258     0.317138190     C.2   1  *****    0.327929
   12   C12        2.671330195    -2.882844409     0.192094967     C.2   1  *****   -0.375950
   13   C13       -1.122279366     3.142082281    -0.235366254     C.2   1  *****    0.167421
   14   C14        0.077834658    -3.403042066     0.109789183     C.2   1  *****    0.253442
   15   O15       -1.797078782     2.219164289    -0.711644370       O   1  *****   -0.418393
   16   N16       -1.619666993     4.377077443    -0.053435685     N.3   1  *****    0.259711
   17   N17        0.081168492    -4.730738199     0.328980771     N.3   1  *****    0.239579
   18   O18       -0.928676257    -2.810485286    -0.302271982       O   1  *****   -0.458550
   19   N19       -1.697048590     0.208266846     2.751593840       N   1  *****    0.831707
   20   O20       -1.208996707    -0.867353762     2.261582445       O   1  *****   -0.576844
   21   O21       -2.171650972     1.034706304     1.898456284       O   1  *****   -0.566109
   22   O22       -1.693889092     0.436465571     3.943113047       O   1  *****   -0.418268
   23   N23       -4.404894967    -0.802790844    -0.180922156       N   1  *****    0.895576
   24   O24       -3.547851408    -1.662903884     0.239498788       O   1  *****   -0.587071
   25   O25       -3.911427774     0.312167513    -0.562873837       O   1  *****   -0.571606
   26   O26       -5.591533233    -1.036594667    -0.210366479       O   1  *****   -0.426372
   27   N27       -0.742626228    -0.561712423    -2.878145341       N   1  *****    0.844907
   28   O28        0.037849660    -0.109881987    -1.960134061       O   1  *****   -0.598921
   29   O29       -1.923671873    -0.843788236    -2.501420518       O   1  *****   -0.560068
   30   O30       -0.362499667    -0.704659919    -4.020519296       O   1  *****   -0.413733
   31   N31        3.864871416     0.699473186     0.261502306     N.3   1  *****    0.040997
   32   C32        5.285376974     0.972688555     0.099720625     C.3   1  *****   -0.457629
   33   Cl33       4.119702014     4.057545544    -0.283502604      Cl   1  *****   -0.052337
   34   Cl34       5.317192628    -2.389780735    -0.020042745      Cl   1  *****   -0.052407
   35   C35       -2.984665042     4.646051764    -0.483285634     C.3   1  *****   -0.549975
   36   C36       -0.991399998     5.416082009     0.739692570     C.3   1  *****   -0.612376
   37   C37       -1.112121704    -5.489537040    -0.019733659     C.3   1  *****   -0.584005
   38   C38        1.087412678    -5.450219310     1.086946122     C.3   1  *****   -0.618325
   39   Nd39      -1.591138622    -0.286609462    -0.112419487      Nd   1  *****    1.828775
   40   H40        1.387823713     4.635160783    -0.347996768       H   1  *****    0.190215
   41   H41        2.985177689    -3.904013729     0.022762879       H   1  *****    0.188363
   42   H42        5.545728567     1.109537951    -0.953510070       H   1  *****    0.180724
   43   H43        5.544379808     1.873657787     0.653101995       H   1  *****    0.173214
   44   H44        5.853516384     0.138128539     0.502198894       H   1  *****    0.172255
   45   H45       -3.009122192     5.584832027    -1.044558499       H   1  *****    0.176357
   46   H46       -3.328896958     3.824353269    -1.106625889       H   1  *****    0.218610
   47   H47       -3.643848407     4.731809535     0.386679206       H   1  *****    0.195973
   48   H48       -1.721682591     5.802829260     1.456688217       H   1  *****    0.217074
   49   H49       -0.150385364     5.019064376     1.304722816       H   1  *****    0.182036
   50   H50       -0.651506581     6.249152755     0.113262393       H   1  *****    0.184260
   51   H51       -1.730549492    -4.893804935    -0.686674471       H   1  *****    0.221071
   52   H52       -0.814135736    -6.420644750    -0.509853245       H   1  *****    0.190174
   53   H53       -1.690418634    -5.727632293     0.879580155       H   1  *****    0.202621
   54   H54        0.581644773    -6.111165100     1.796569434       H   1  *****    0.219168
   55   H55        1.721225164    -6.067193373     0.438838123       H   1  *****    0.184789
   56   H56        1.709434694    -4.765050739     1.659937036       H   1  *****    0.191584


@<TRIPOS>BOND
    1      1      2    1
    2      1      6    2
    3      2      3    2
    4      3      4    1
    5      4      5    2
    6      5      6    1
    7      7      8    1
    8      7     12    2
    9      8      9    2
   10      9     10    1
   11     10     11    2
   12     11     12    1
   13      6      9    1
   14      4     13    1
   15     11     14    1
   16     13     15    2
   17     13     16    1
   18     14     17    1
   19     14     18    2
   20     19     20    2
   21     19     21    2
   22     19     22    1
   23     23     24    2
   24     23     25    2
   25     23     26    1
   26     27     28    2
   27     27     29    2
   28     27     30    1
   29     31     32    1
   30      1     31    1
   31      8     31    1
   32      2     33    1
   33      7     34    1
   34     16     35    1
   35     16     36    1
   36     17     37    1
   37     17     38    1
   38      5     39    1
   39     15     39    1
   40     10     39    1
   41     18     39    1
   42     24     39    1
   43     29     39    1
   44     25     39    1
   45     28     39    1
   46     20     39    1
   47     21     39    1
   48      3     40    1
   49     12     41    1
   50     32     42    1
   51     32     43    1
   52     32     44    1
   53     35     45    1
   54     35     46    1
   55     35     47    1
   56     36     48    1
   57     36     49    1
   58     36     50    1
   59     37     51    1
   60     37     52    1
   61     37     53    1
   62     38     54    1
   63     38     55    1
   64     38     56    1
#
#	File Created by: Spartan '14 Export
#

@<TRIPOS>MOLECULE
*****
56 64
SMALL
USER_CHARGES


@<TRIPOS>ATOM
    1   C1         0.116887319    -3.515271030     0.217939350     C.2   1  *****   -0.183709
    2   C2        -1.106858017    -4.115167735    -0.072852045     C.2   1  *****    0.440345
    3   C3        -2.250303460    -3.325995030    -0.146777272     C.2   1  *****   -0.534155
    4   C4        -2.172267335    -1.937800394     0.075368209     C.2   1  *****    0.486343
    5   N5        -1.021684194    -1.361905466     0.402113764       N   1  *****   -0.549075
    6   C6         0.040804691    -2.136232454     0.472415805     C.2   1  *****    0.284662
    7   C7         3.560513470    -2.399057655     0.138427301     C.2   1  *****    0.432144
    8   C8         2.220759624    -2.743956702     0.312948709     C.2   1  *****   -0.147907
    9   C9         1.367849355    -1.651102933     0.531667072     C.2   1  *****    0.156350
   10   N10        1.678646033    -0.375716832     0.522509543       N   1  *****   -0.379231
   11   C11        2.948701136    -0.055105344     0.327748009     C.2   1  *****    0.377608
   12   C12        3.924977895    -1.056530718     0.147116427     C.2   1  *****   -0.519446
   13   C13       -3.195098133    -0.878050730    -0.258037892     C.2   1  *****    0.161137
   14   C14        3.051458483     1.440285575     0.126864259     C.2   1  *****    0.252087
   15   O15       -2.743378510     0.173158572    -0.732876215       O   1  *****   -0.418543
   16   N16       -4.511881309    -1.082684172    -0.086372676     N.3   1  *****    0.267165
   17   N17        4.196757695     2.113143155     0.344281258     N.3   1  *****    0.231160
   18   O18        2.025364556     2.005259058    -0.274416305       O   1  *****   -0.455937
   19   N19       -1.054625713     1.154688454     2.741058496       N   1  *****    0.848818
   20   O20       -1.982326233     1.169699545     1.860469546       O   1  *****   -0.569780
   21   O21        0.136560470     1.238922730     2.284550090       O   1  *****   -0.584840
   22   O22       -1.288125489     1.049988520     3.926931772       O   1  *****   -0.421971
   23   N23       -1.449296993     3.968364473    -0.215922436       N   1  *****    0.887155
   24   O24       -2.150208158     2.980060049    -0.623119686       O   1  *****   -0.568845
   25   O25       -0.291997907     3.660734877     0.249570376       O   1  *****   -0.585031
   26   O26       -1.842603388     5.111421931    -0.263469830       O   1  *****   -0.422247
   27   N27        0.280208210     0.659517186    -2.841463478       N   1  *****    0.847335
   28   O28        0.242593102    -0.236221506    -1.918630006       O   1  *****   -0.600238
   29   O29       -0.097842672     1.821273268    -2.490793340       O   1  *****   -0.561984
   30   O30        0.655374080     0.398327654    -3.964805244       O   1  *****   -0.415694
   31   N31        1.453082421    -3.890866024     0.159086593     N.3   1  *****    0.205483
   32   C32        1.957185455    -5.243698923     0.000334332     C.3   1  *****   -0.552592
   33   F33       -1.188801127    -5.421038935    -0.346982313       F   1  *****   -0.162932
   34   F34        4.488685269    -3.332876814    -0.097194798       F   1  *****   -0.165841
   35   C35       -5.088147557    -2.148303914     0.710591354     C.3   1  *****   -0.631487
   36   C36       -5.436766436    -0.043196281    -0.514332741     C.3   1  *****   -0.549669
   37   C37        5.340736883     1.598943245     1.071969639     C.3   1  *****   -0.639949
   38   C38        4.238460978     3.531515138     0.017792107     C.3   1  *****   -0.563626
   39   Nd39      -0.490718349     1.278031633    -0.106134593      Nd   1  *****    1.836551
   40   H40       -3.173213460    -3.805017127    -0.447923460       H   1  *****    0.225982
   41   H41        4.960763123    -0.820419701    -0.058740541       H   1  *****    0.225639
   42   H42        2.114494158    -5.723335524     0.971722984       H   1  *****    0.192378
   43   H43        1.236360805    -5.826047610    -0.571621405       H   1  *****    0.209177
   44   H44        2.903282127    -5.210835977    -0.538526206       H   1  *****    0.209268
   45   H45       -5.759518955    -1.711599204     1.456656276       H   1  *****    0.220438
   46   H46       -5.669172161    -2.839844452     0.089460110       H   1  *****    0.188545
   47   H47       -4.315803730    -2.699359372     1.243675280       H   1  *****    0.192663
   48   H48       -5.832415660     0.491285013     0.355471985       H   1  *****    0.195873
   49   H49       -4.907788183     0.662563243    -1.150275655       H   1  *****    0.218203
   50   H50       -6.266810167    -0.499398945    -1.061992103       H   1  *****    0.176291
   51   H51        5.655775619     2.346347641     1.806362124       H   1  *****    0.222949
   52   H52        5.082803448     0.691622677     1.614933552       H   1  *****    0.200872
   53   H53        6.188565412     1.399212614     0.405609443       H   1  *****    0.191017
   54   H54        4.184014432     4.134211794     0.930709106       H   1  *****    0.197876
   55   H55        5.175219911     3.754359325    -0.501151002       H   1  *****    0.186550
   56   H56        3.389419680     3.776270206    -0.615837822       H   1  *****    0.216664


@<TRIPOS>BOND
    1      1      2    1
    2      1      6    2
    3      2      3    2
    4      3      4    1
    5      4      5    2
    6      5      6    1
    7      7      8    1
    8      7     12    2
    9      8      9    2
   10      9     10    1
   11     10     11    2
   12     11     12    1
   13      6      9    1
   14      4     13    1
   15     11     14    1
   16     13     15    2
   17     13     16    1
   18     14     17    1
   19     14     18    2
   20     19     20    2
   21     19     21    2
   22     19     22    1
   23     23     24    2
   24     23     25    2
   25     23     26    1
   26     27     28    2
   27     27     29    2
   28     27     30    1
   29     31     32    1
   30      1     31    1
   31      8     31    1
   32      2     33    1
   33      7     34    1
   34     16     35    1
   35     16     36    1
   36     17     37    1
   37     17     38    1
   38      5     39    1
   39     15     39    1
   40     10     39    1
   41     18     39    1
   42     24     39    1
   43     29     39    1
   44     25     39    1
   45     28     39    1
   46     20     39    1
   47     21     39    1
   48      3     40    1
   49     12     41    1
   50     32     42    1
   51     32     43    1
   52     32     44    1
   53     35     45    1
   54     35     46    1
   55     35     47    1
   56     36     48    1
   57     36     49    1
   58     36     50    1
   59     37     51    1
   60     37     52    1
   61     37     53    1
   62     38     54    1
   63     38     55    1
   64     38     56    1
#
#	File Created by: Spartan '14 Export
#

@<TRIPOS>MOLECULE
*****
70 78
SMALL
USER_CHARGES


@<TRIPOS>ATOM
    1   C1         2.833309877     0.946567735    -0.613664560     C.2   1  *****    0.088921
    2   C2         3.122304048     2.322918511    -0.564985931     C.2   1  *****    0.103315
    3   C3         2.015586354     3.178720080    -0.443199209     C.2   1  *****   -0.319806
    4   C4         0.687291491     2.710517092    -0.397417374     C.2   1  *****    0.249442
    5   N5         0.443512780     1.411487172    -0.486196339       N   1  *****   -0.293158
    6   C6         1.472053475     0.610974095    -0.608719688     C.2   1  *****    0.066201
    7   C7         2.764028505    -2.710359487    -0.349522142     C.2   1  *****    0.090925
    8   C8         2.671410506    -1.317723557    -0.521431562     C.2   1  *****    0.038221
    9   C9         1.369897600    -0.791905632    -0.558736861     C.2   1  *****    0.242610
   10   N10        0.234628535    -1.429474502    -0.394904498       N   1  *****   -0.494626
   11   C11        0.300917419    -2.736507381    -0.171333754     C.2   1  *****    0.388141
   12   C12        1.548037338    -3.386596980    -0.159799047     C.2   1  *****   -0.352437
   13   C13       -0.613722499     3.420880696    -0.098301700     C.2   1  *****    0.293618
   14   C14       -1.057897494    -3.237787240     0.252057025     C.2   1  *****    0.219989
   15   O15       -1.521358596     2.725058653     0.377013651       O   1  *****   -0.473535
   16   N16       -0.776809877     4.741822079    -0.314455761     N.3   1  *****    0.218167
   17   N17       -1.430688171    -4.520092457     0.085172107     N.3   1  *****    0.211141
   18   O18       -1.800039961    -2.408060702     0.796402934       O   1  *****   -0.435991
   19   N19       -2.036913951    -0.466162707    -2.667772709       N   1  *****    0.841084
   20   O20       -1.604697567     0.649570638    -2.218445235       O   1  *****   -0.585889
   21   O21       -2.451579528    -1.291836556    -1.785444286       O   1  *****   -0.560901
   22   O22       -2.035231777    -0.730019315    -3.853466576       O   1  *****   -0.429385
   23   N23       -4.753722216     0.361443041     0.260978270       N   1  *****    0.871486
   24   O24       -3.987102678     1.289833106    -0.187215942       O   1  *****   -0.580478
   25   O25       -4.154586202    -0.686477279     0.677390032       O   1  *****   -0.558542
   26   O26       -5.958824172     0.477421104     0.284544273       O   1  *****   -0.424637
   27   N27       -1.035666234     0.504205758     2.929552188       N   1  *****    0.837699
   28   O28       -0.226471888     0.139706881     2.000199267       O   1  *****   -0.583918
   29   O29       -2.250983911     0.638610432     2.576041677       O   1  *****   -0.563153
   30   O30       -0.655199479     0.703855137     4.063639486       O   1  *****   -0.413856
   31   N31        3.562410159    -0.244074810    -0.593330083     N.3   1  *****   -0.020694
   32   C32        5.011051851    -0.341509215    -0.554170293     C.3   1  *****   -0.470757
   33   C33        4.502408760     2.915836474    -0.619714042     C.3   1  *****   -0.136287
   34   O34        5.200648852     2.627195956     0.572385274     O.3   1  *****   -0.175501
   35   C35        6.470443025     3.240270558     0.610175820     C.3   1  *****   -0.423260
   36   C36        4.046688354    -3.492878635    -0.323135964     C.3   1  *****   -0.078512
   37   O37        4.775828755    -3.179844794     0.843910638     O.3   1  *****   -0.177063
   38   C38        5.946998044    -3.957159444     0.967261450     C.3   1  *****   -0.418394
   39   C39        0.087685292     5.562424433    -1.138334829     C.3   1  *****   -0.601575
   40   C40       -2.019472357     5.364481325     0.117230940     C.3   1  *****   -0.593266
   41   C41       -0.799264983    -5.452332463    -0.828029164     C.3   1  *****   -0.604521
   42   C42       -2.729551904    -4.925299624     0.602808029     C.3   1  *****   -0.565146
   43   Nd43      -1.899880282     0.116983421     0.187940019      Nd   1  *****    1.830285
   44   H44        2.220564434     4.237430168    -0.343226506       H   1  *****    0.175544
   45   H45        1.597677843    -4.449794217     0.044986267       H   1  *****    0.177056
   46   H46        5.432597474    -0.405762693    -1.563131844       H   1  *****    0.159619
   47   H47        5.401989506     0.539225249    -0.043060350       H   1  *****    0.203952
   48   H48        5.283202237    -1.226785673     0.021537275       H   1  *****    0.203812
   49   H49        4.422623975     4.004031651    -0.759488230       H   1  *****    0.127053
   50   H50        5.053741701     2.521409215    -1.489510722       H   1  *****    0.110868
   51   H51        7.115304584     2.892457917    -0.210764606       H   1  *****    0.148810
   52   H52        6.387719103     4.334559800     0.547489019       H   1  *****    0.165710
   53   H53        6.925673075     2.970636453     1.563813944       H   1  *****    0.191971
   54   H54        4.649911438    -3.273860068    -1.220277335       H   1  *****    0.099910
   55   H55        3.814627986    -4.567718293    -0.349523238       H   1  *****    0.114167
   56   H56        6.631959203    -3.796677706     0.121419774       H   1  *****    0.144810
   57   H57        6.437622648    -3.648549850     1.891078052       H   1  *****    0.189815
   58   H58        5.711085557    -5.029078315     1.025736074       H   1  *****    0.162939
   59   H59        0.718261200     6.228779709    -0.536476051       H   1  *****    0.175003
   60   H60        0.717037780     4.945577541    -1.777677772       H   1  *****    0.176933
   61   H61       -0.534540516     6.183541280    -1.789453850       H   1  *****    0.216623
   62   H62       -2.675607286     5.547373293    -0.740880745       H   1  *****    0.201681
   63   H63       -2.527961086     4.699051103     0.810726349       H   1  *****    0.223794
   64   H64       -1.794972062     6.318426151     0.603404585       H   1  *****    0.192392
   65   H65       -0.034849865    -4.956025852    -1.422318873       H   1  *****    0.173849
   66   H66       -0.354569965    -6.298489459    -0.291143441       H   1  *****    0.179197
   67   H67       -1.554560917    -5.842970267    -1.517582953       H   1  *****    0.221529
   68   H68       -3.490637659    -4.868273123    -0.182986674       H   1  *****    0.205498
   69   H69       -2.662017802    -5.954218010     0.966217297       H   1  *****    0.185202
   70   H70       -3.017004538    -4.257637228     1.411689150       H   1  *****    0.216312


@<TRIPOS>BOND
    1      1      2    1
    2      1      6    2
    3      2      3    2
    4      3      4    1
    5      4      5    2
    6      5      6    1
    7      7      8    1
    8      7     12    2
    9      8      9    2
   10      9     10    1
   11     10     11    2
   12     11     12    1
   13      6      9    1
   14      4     13    1
   15     11     14    1
   16     13     15    2
   17     13     16    1
   18     14     17    1
   19     14     18    2
   20     19     20    2
   21     19     21    2
   22     19     22    1
   23     23     24    2
   24     23     25    2
   25     23     26    1
   26     27     28    2
   27     27     29    2
   28     27     30    1
   29     31     32    1
   30      1     31    1
   31      8     31    1
   32     33     34    1
   33     34     35    1
   34      2     33    1
   35     36     37    1
   36     37     38    1
   37      7     36    1
   38     16     39    1
   39     16     40    1
   40     17     41    1
   41     17     42    1
   42      5     43    1
   43     15     43    1
   44     10     43    1
   45     18     43    1
   46     24     43    1
   47     29     43    1
   48     25     43    1
   49     28     43    1
   50     20     43    1
   51     21     43    1
   52      3     44    1
   53     12     45    1
   54     32     46    1
   55     32     47    1
   56     32     48    1
   57     33     49    1
   58     33     50    1
   59     35     51    1
   60     35     52    1
   61     35     53    1
   62     36     54    1
   63     36     55    1
   64     38     56    1
   65     38     57    1
   66     38     58    1
   67     39     59    1
   68     39     60    1
   69     39     61    1
   70     40     62    1
   71     40     63    1
   72     40     64    1
   73     41     65    1
   74     41     66    1
   75     41     67    1
   76     42     68    1
   77     42     69    1
   78     42     70    1
#
#	File Created by: Spartan '14 Export
#

@<TRIPOS>MOLECULE
*****
60 68
SMALL
USER_CHARGES


@<TRIPOS>ATOM
    1   C1         3.104500950     0.729103533    -0.230772341     C.2   1  *****    0.063268
    2   C2         3.408060999     2.097773176    -0.155540100     C.2   1  *****    0.011729
    3   C3         2.368385308     3.033078608    -0.168705775     C.2   1  *****   -0.336122
    4   C4         1.034174616     2.626992945    -0.307913112     C.2   1  *****    0.367340
    5   N5         0.747621002     1.339553534    -0.464107587       N   1  *****   -0.381126
    6   C6         1.734100459     0.481935037    -0.442001041     C.2   1  *****    0.147262
    7   C7         2.720592675    -2.893872352     0.063863643     C.2   1  *****    0.021801
    8   C8         2.793844940    -1.506247929    -0.132182705     C.2   1  *****    0.019893
    9   C9         1.539085082    -0.915973297    -0.381089430     C.2   1  *****    0.272777
   10   N10        0.354905983    -1.474915242    -0.343924370       N   1  *****   -0.498762
   11   C11        0.291054051    -2.772687404    -0.061205053     C.2   1  *****    0.456603
   12   C12        1.467029890    -3.510180268     0.125588442     C.2   1  *****   -0.357609
   13   C13       -0.250427277     3.403288051    -0.120754028     C.2   1  *****    0.239288
   14   C14       -1.138862940    -3.163448369     0.230566837     C.2   1  *****    0.154171
   15   O15       -1.212419689     2.749126722     0.306754486       O   1  *****   -0.446791
   16   N16       -0.336114453     4.718895975    -0.373977964     N.3   1  *****    0.232351
   17   N17       -1.588866306    -4.411627532     0.034871650     N.3   1  *****    0.264369
   18   O18       -1.851013708    -2.262890493     0.696915294       O   1  *****   -0.415224
   19   N19       -1.804961148    -0.173399375    -2.752801904       N   1  *****    0.814891
   20   O20       -1.471970154     0.944650113    -2.228697513       O   1  *****   -0.567859
   21   O21       -2.177667494    -1.077233122    -1.925588532       O   1  *****   -0.561277
   22   O22       -1.757233678    -0.369439158    -3.947799508       O   1  *****   -0.405371
   23   N23       -4.608454394     0.650063697     0.252916843       N   1  *****    0.896300
   24   O24       -3.789510842     1.572133567    -0.107652350       O   1  *****   -0.587463
   25   O25       -4.066498479    -0.476638104     0.525517732       O   1  *****   -0.577454
   26   O26       -5.800127663     0.836387915     0.326943817       O   1  *****   -0.417529
   27   N27       -0.909950260     0.499778477     2.882142132       N   1  *****    0.827653
   28   O28       -0.108642542     0.149004863     1.935716042       O   1  *****   -0.590367
   29   O29       -2.115670630     0.692863911     2.531228454       O   1  *****   -0.553569
   30   O30       -0.522720891     0.632805902     4.022226580       O   1  *****   -0.401133
   31   N31        3.746093427    -0.492941240    -0.039890080     N.3   1  *****    0.005795
   32   C32        5.088245554    -0.658896842     0.515630667     C.3   1  *****   -0.510742
   33   N33        4.771212908     2.626939562    -0.121538778       N   1  *****    0.724518
   34   O34        4.933801889     3.765285199     0.292487898     O.2   1  *****   -0.381538
   35   O35        5.654021197     1.896120812    -0.558728712     O.2   1  *****   -0.391836
   36   N36        3.891549648    -3.766089779     0.156090969       N   1  *****    0.721417
   37   O37        4.929181432    -3.345350127    -0.344294581     O.2   1  *****   -0.389337
   38   O38        3.748287573    -4.861953198     0.677924722     O.2   1  *****   -0.379037
   39   C39        0.661343209     5.502143572    -1.080287043     C.3   1  *****   -0.627015
   40   C40       -1.578807641     5.409248040    -0.053005633     C.3   1  *****   -0.558367
   41   C41       -0.905842813    -5.429846400    -0.741927841     C.3   1  *****   -0.617475
   42   C42       -2.952063459    -4.730185269     0.438631714     C.3   1  *****   -0.554361
   43   Nd43      -1.783635914     0.243468259     0.121382222      Nd   1  *****    1.829621
   44   H44        2.648398704     4.069233516    -0.040985789       H   1  *****    0.188648
   45   H45        1.452340399    -4.568718591     0.347084341       H   1  *****    0.191358
   46   H46        5.825277707    -0.819115723    -0.270203231       H   1  *****    0.227646
   47   H47        5.348255154     0.231667916     1.080124736       H   1  *****    0.204781
   48   H48        5.087173371    -1.511225914     1.189753116       H   1  *****    0.203919
   49   H49        0.145450193     6.176359966    -1.768469497       H   1  *****    0.224883
   50   H50        1.263563157     6.109660114    -0.394746541       H   1  *****    0.196446
   51   H51        1.313737553     4.863434037    -1.673473032       H   1  *****    0.193736
   52   H52       -2.083450440     5.718396872    -0.973826849       H   1  *****    0.197476
   53   H53       -2.227889987     4.733897140     0.498994342       H   1  *****    0.219488
   54   H54       -1.357950982     6.296449026     0.547987470       H   1  *****    0.186291
   55   H55       -1.611925572    -5.852647231    -1.462117310       H   1  *****    0.220052
   56   H56       -0.078368718    -5.001667516    -1.304382863       H   1  *****    0.186853
   57   H57       -0.536918905    -6.241279537    -0.104345210       H   1  *****    0.193401
   58   H58       -3.591780806    -4.829364676    -0.444106357       H   1  *****    0.198566
   59   H59       -2.953042081    -5.674752319     0.990070634       H   1  *****    0.181045
   60   H60       -3.334907787    -3.927434098     1.064052791       H   1  *****    0.221731


@<TRIPOS>BOND
    1      1      2    1
    2      1      6    2
    3      2      3    2
    4      3      4    1
    5      4      5    2
    6      5      6    1
    7      7      8    1
    8      7     12    2
    9      8      9    2
   10      9     10    1
   11     10     11    2
   12     11     12    1
   13      6      9    1
   14      4     13    1
   15     11     14    1
   16     13     15    2
   17     13     16    1
   18     14     17    1
   19     14     18    2
   20     19     20    2
   21     19     21    2
   22     19     22    1
   23     23     24    2
   24     23     25    2
   25     23     26    1
   26     27     28    2
   27     27     29    2
   28     27     30    1
   29     31     32    1
   30      1     31    1
   31      8     31    1
   32     33     34    2
   33     33     35    2
   34      2     33    1
   35     36     37    2
   36     36     38    2
   37      7     36    1
   38     16     39    1
   39     16     40    1
   40     17     41    1
   41     17     42    1
   42      5     43    1
   43     15     43    1
   44     10     43    1
   45     18     43    1
   46     24     43    1
   47     29     43    1
   48     25     43    1
   49     28     43    1
   50     20     43    1
   51     21     43    1
   52      3     44    1
   53     12     45    1
   54     32     46    1
   55     32     47    1
   56     32     48    1
   57     39     49    1
   58     39     50    1
   59     39     51    1
   60     40     52    1
   61     40     53    1
   62     40     54    1
   63     41     55    1
   64     41     56    1
   65     41     57    1
   66     42     58    1
   67     42     59    1
   68     42     60    1
#
#	File Created by: Spartan '14 Export
#

@<TRIPOS>MOLECULE
*****
71 81
SMALL
USER_CHARGES


@<TRIPOS>ATOM
    1   C1        -1.418737651    -3.489592503     0.247480918     C.2   1  *****    0.095000
    2   C2        -2.746353102    -3.420851065     0.654154744     C.2   1  *****   -0.095949
    3   C3        -3.330822373    -2.192755434     0.937233640     C.2   1  *****   -0.253415
    4   C4        -2.568869305    -1.038164833     0.766691181     C.2   1  *****    0.294124
    5   N5        -1.289796048    -1.100280074     0.391212865       N   1  *****   -0.468370
    6   C6        -0.713491648    -2.280822610     0.169379693     C.2   1  *****    0.225286
    7   C7         2.749444917    -3.413512734    -0.678385884     C.2   1  *****   -0.097938
    8   C8         1.422472757    -3.486678194    -0.270467650     C.2   1  *****    0.096975
    9   C9         0.717286460    -2.278852782    -0.177832829     C.2   1  *****    0.223973
   10   N10        1.293327496    -1.095902030    -0.386834263       N   1  *****   -0.470033
   11   C11        2.571602507    -1.029718469    -0.764116625     C.2   1  *****    0.291447
   12   C12        3.333292255    -2.182312582    -0.948912831     C.2   1  *****   -0.252201
   13   C13       -2.989729724     0.372125569     1.094906149     C.2   1  *****    0.419936
   14   C14        2.991506598     0.383726132    -1.078850881     C.2   1  *****    0.427859
   15   O15       -2.097115261     1.180931553     1.382547080       O   1  *****   -0.445227
   16   N16       -4.291046665     0.727548966     1.143802874     N.3   1  *****   -0.216414
   17   N17        4.292464522     0.740830788    -1.121990112     N.3   1  *****   -0.226799
   18   O18        2.098411732     1.193935943    -1.360909206       O   1  *****   -0.446533
   19   N19       -1.718609173     0.507172995    -2.307335527       N   1  *****    0.871715
   20   O20       -0.492540802     0.183749608    -2.258142167       O   1  *****   -0.564020
   21   O21       -2.136795411     1.239936124    -1.345342072       O   1  *****   -0.572038
   22   O22       -2.465072272     0.125186800    -3.191942512       O   1  *****   -0.437503
   23   N23       -0.005758639     4.046399248     0.013482667       N   1  *****    0.888934
   24   O24       -0.195144018     3.358829152     1.078138735       O   1  *****   -0.597766
   25   O25        0.187545888     3.361936273    -1.052358301       O   1  *****   -0.597604
   26   O26       -0.009101902     5.256708335     0.014702160       O   1  *****   -0.416379
   27   N27        1.719961060     0.496025543     2.323915780       N   1  *****    0.873108
   28   O28        0.494461524     0.171125695     2.273466158       O   1  *****   -0.565137
   29   O29        2.136322253     1.236131481     1.366665488       O   1  *****   -0.572430
   30   O30        2.467925837     0.108607867     3.204940305       O   1  *****   -0.437768
   31   C31       -0.746044753    -4.766705521    -0.175558932     C.3   1  *****   -0.307576
   32   C32        0.750006134    -4.768296407     0.139085711     C.3   1  *****   -0.307343
   33   H33       -3.328027616    -4.332503637     0.752374185       H   1  *****    0.139490
   34   H34        3.330922668    -4.324020902    -0.787684757       H   1  *****    0.140211
   35   C35       -4.565868745     2.107436082     1.553724817     C.3   1  *****   -0.577752
   36   C36       -5.323488574     0.045569436     0.423615700     C.2   1  *****    0.468798
   37   C37       -5.209179695    -0.133623636    -0.954668673     C.2   1  *****   -0.257888
   38   C38       -6.232411470    -0.780189396    -1.641235623     C.2   1  *****   -0.099653
   39   C39       -7.365904043    -1.223955569    -0.967228183     C.2   1  *****   -0.152079
   40   C40       -7.481781924    -1.021568170     0.406263654     C.2   1  *****   -0.093057
   41   C41       -6.461230857    -0.387345871     1.105064427     C.2   1  *****   -0.306817
   42   C42        4.567427602     2.124656380    -1.518339103     C.3   1  *****   -0.568731
   43   C43        5.324523373     0.052047191    -0.407564674     C.2   1  *****    0.466820
   44   C44        5.209633160    -0.139732609     0.968961713     C.2   1  *****   -0.251064
   45   C45        6.232697466    -0.792364426     1.650056431     C.2   1  *****   -0.107470
   46   C46        7.366343420    -1.230113466     0.972476907     C.2   1  *****   -0.148627
   47   C47        7.482640141    -1.015534574    -0.399136075     C.2   1  *****   -0.094596
   48   C48        6.462427424    -0.374798656    -1.092470576     C.2   1  *****   -0.303103
   49   Nd49       0.000180127     1.173912680     0.010123631      Nd   1  *****    1.825152
   50   H50       -4.358010703    -2.136646419     1.270224790       H   1  *****    0.136913
   51   H51        4.359813319    -2.122334834    -1.283418034       H   1  *****    0.137025
   52   H52       -0.887163851    -4.881067441    -1.259481530       H   1  *****    0.145172
   53   H53       -1.232495302    -5.627638581     0.292064713       H   1  *****    0.144877
   54   H54        0.891035686    -4.893896086     1.221766182       H   1  *****    0.145475
   55   H55        1.236605195    -5.624249738    -0.337435861       H   1  *****    0.144457
   56   H56       -5.620924881     2.185695544     1.813725191       H   1  *****    0.199980
   57   H57       -3.941870908     2.363682382     2.408673139       H   1  *****    0.230732
   58   H58       -4.336528372     2.799064015     0.737078879       H   1  *****    0.219633
   59   H59       -4.336762053     0.241374418    -1.481584803       H   1  *****    0.139080
   60   H60       -6.141574584    -0.922127312    -2.713143686       H   1  *****    0.145230
   61   H61       -8.163084164    -1.720388988    -1.511118692       H   1  *****    0.132873
   62   H62       -8.365949412    -1.360732173     0.936304940       H   1  *****    0.131675
   63   H63       -6.533934983    -0.232871097     2.177244738       H   1  *****    0.156957
   64   H64        3.940200093     2.390639491    -2.367885582       H   1  *****    0.229250
   65   H65        4.342362109     2.807697260    -0.693275687       H   1  *****    0.217381
   66   H66        5.621530069     2.204622400    -1.781762671       H   1  *****    0.198499
   67   H67        4.336784199     0.229888817     1.498920189       H   1  *****    0.137612
   68   H68        6.141501935    -0.943931854     2.720609498       H   1  *****    0.147138
   69   H69        8.163302399    -1.731451762     1.512170859       H   1  *****    0.132527
   70   H70        8.366887942    -1.350132246    -0.931938575       H   1  *****    0.131305
   71   H71        6.535420706    -0.210622068    -2.163189204       H   1  *****    0.156662


@<TRIPOS>BOND
    1      1      2    1
    2      1      6    2
    3      2      3    2
    4      3      4    1
    5      4      5    2
    6      5      6    1
    7      7      8    1
    8      7     12    2
    9      8      9    2
   10      9     10    1
   11     10     11    2
   12     11     12    1
   13      6      9    1
   14      4     13    1
   15     11     14    1
   16     13     15    2
   17     13     16    1
   18     14     17    1
   19     14     18    2
   20     19     20    2
   21     19     21    2
   22     19     22    1
   23     23     24    2
   24     23     25    2
   25     23     26    1
   26     27     28    2
   27     27     29    2
   28     27     30    1
   29     31     32    1
   30      1     31    1
   31      8     32    1
   32      2     33    1
   33      7     34    1
   34     16     35    1
   35     36     37    2
   36     36     41    1
   37     37     38    1
   38     38     39    2
   39     39     40    1
   40     40     41    2
   41     16     36    1
   42     17     42    1
   43     43     44    2
   44     43     48    1
   45     44     45    1
   46     45     46    2
   47     46     47    1
   48     47     48    2
   49     17     43    1
   50      5     49    1
   51     10     49    1
   52     29     49    1
   53     15     49    1
   54     25     49    1
   55     28     49    1
   56     24     49    1
   57     21     49    1
   58     20     49    1
   59     18     49    1
   60      3     50    1
   61     12     51    1
   62     31     52    1
   63     31     53    1
   64     32     54    1
   65     32     55    1
   66     35     56    1
   67     35     57    1
   68     35     58    1
   69     37     59    1
   70     38     60    1
   71     39     61    1
   72     40     62    1
   73     41     63    1
   74     42     64    1
   75     42     65    1
   76     42     66    1
   77     44     67    1
   78     45     68    1
   79     46     69    1
   80     47     70    1
   81     48     71    1
#
#	File Created by: Spartan '14 Export
#

@<TRIPOS>MOLECULE
*****
79 89
SMALL
USER_CHARGES


@<TRIPOS>ATOM
    1   C1        -1.349655971    -2.950167600     1.041171408     C.2   1  *****   -0.154209
    2   C2        -2.750983001    -2.912279847     0.961624151     C.2   1  *****    0.466541
    3   C3        -3.395562299    -1.700169127     0.707866621     C.2   1  *****   -0.412982
    4   C4        -2.619627213    -0.559943888     0.527186882     C.2   1  *****    0.241727
    5   N5        -1.296091557    -0.577990247     0.647359884       N   1  *****   -0.549450
    6   C6        -0.681395137    -1.740719920     0.883573206     C.2   1  *****    0.280494
    7   C7         2.920036192    -2.718612760     1.187991778     C.2   1  *****    0.524929
    8   C8         1.521663268    -2.820979296     1.266798294     C.2   1  *****   -0.207185
    9   C9         0.789350640    -1.701517044     0.889594832     C.2   1  *****    0.320983
   10   N10        1.341870853    -0.549548961     0.499615674       N   1  *****   -0.586070
   11   C11        2.663861769    -0.473555473     0.393811807     C.2   1  *****    0.286451
   12   C12        3.499852301    -1.535581331     0.722872343     C.2   1  *****   -0.484935
   13   C13       -3.152727364     0.818119881     0.235262692     C.2   1  *****    0.592850
   14   C14        3.134458702     0.900932136    -0.000069986     C.2   1  *****    0.600679
   15   O15       -2.497296362     1.795978066     0.612913576       O   1  *****   -0.507307
   16   N16       -4.337736645     0.977253326    -0.400337172     N.3   1  *****   -0.296363
   17   N17        4.269468681     1.049755574    -0.720670900     N.3   1  *****   -0.291911
   18   O18        2.480908300     1.877851832     0.383137744       O   1  *****   -0.510854
   19   N19       -0.093879727     0.864480705    -2.329423158       N   1  *****    0.893974
   20   O20        0.998805649     1.183093349    -1.766318156       O   1  *****   -0.568033
   21   O21       -1.147945392     1.111883434    -1.660510898       O   1  *****   -0.559612
   22   O22       -0.132863470     0.340111834    -3.431793094       O   1  *****   -0.461628
   23   N23       -0.024392414     4.558808944     0.444371708       N   1  *****    0.892868
   24   O24        0.131332304     3.936206832     1.552910119       O   1  *****   -0.595883
   25   O25       -0.177281449     3.809772098    -0.586025761       O   1  *****   -0.607917
   26   O26       -0.027438803     5.766292388     0.372015381       O   1  *****   -0.413656
   27   N27        0.124804633     1.108044080     3.474010660       N   1  *****    0.922721
   28   O28       -0.980805401     1.289569068     2.862165898       O   1  *****   -0.586342
   29   O29        1.172319006     1.217829641     2.750436356       O   1  *****   -0.585662
   30   O30        0.178058774     0.836314459     4.657046062       O   1  *****   -0.462022
   31   C31       -0.575455622    -4.230515924     1.188575930     C.3   1  *****   -0.195720
   32   C32        0.809670965    -4.027752555     1.811201444     C.3   1  *****   -0.176306
   33   O33       -3.387004719    -4.086797005     1.112543015     O.3   1  *****   -0.244667
   34   C34       -4.803458357    -4.109952478     1.019281035     C.3   1  *****   -0.379499
   35   O35        3.618266023    -3.800716299     1.572637267     O.3   1  *****   -0.249446
   36   C36        5.034115835    -3.760747495     1.488408352     C.3   1  *****   -0.381936
   37   C37       -4.792883398     2.359583302    -0.573171124     C.3   1  *****   -0.608453
   38   C38       -4.847957966     0.007431267    -1.322375479     C.2   1  *****    0.568808
   39   C39       -4.039884002    -0.448170847    -2.364537123     C.2   1  *****   -0.304312
   40   C40       -4.552318073    -1.379426239    -3.262229123     C.2   1  *****   -0.088683
   41   C41       -5.860638813    -1.837896175    -3.135400924     C.2   1  *****   -0.151232
   42   C42       -6.668683557    -1.359037466    -2.106230953     C.2   1  *****   -0.091892
   43   C43       -6.164591424    -0.434820364    -1.197572888     C.2   1  *****   -0.342272
   44   C44        4.690521911     2.426097931    -0.992819031     C.3   1  *****   -0.603032
   45   C45        4.718214029     0.038231857    -1.630307066     C.2   1  *****    0.514811
   46   C46        6.039639657    -0.402960615    -1.575531714     C.2   1  *****   -0.318044
   47   C47        6.480709967    -1.365369561    -2.477068398     C.2   1  *****   -0.112632
   48   C48        5.605686723    -1.882621616    -3.429783614     C.2   1  *****   -0.133788
   49   C49        4.291884429    -1.427223887    -3.486724477     C.2   1  *****   -0.107329
   50   C50        3.841602354    -0.457944644    -2.595770877     C.2   1  *****   -0.272478
   51   Nd51      -0.003504341     1.699529956     0.602052555      Nd   1  *****    1.870262
   52   H52       -4.469837953    -1.644370218     0.619560553       H   1  *****    0.143327
   53   H53        4.570587489    -1.430350883     0.628327480       H   1  *****    0.162983
   54   H54       -0.469644878    -4.679600398     0.190687898       H   1  *****    0.121907
   55   H55       -1.149629015    -4.947851490     1.779364476       H   1  *****    0.116303
   56   H56        0.707661889    -3.899972021     2.897733177       H   1  *****    0.129928
   57   H57        1.418823223    -4.922483173     1.666959955       H   1  *****    0.109479
   58   H58       -5.091131193    -5.151753848     1.154309241       H   1  *****    0.194376
   59   H59       -5.260481838    -3.500384873     1.806200435       H   1  *****    0.178067
   60   H60       -5.141494785    -3.758046188     0.038588820       H   1  *****    0.158307
   61   H61        5.378191477    -4.738145520     1.823897861       H   1  *****    0.194406
   62   H62        5.364731106    -3.588103638     0.458430439       H   1  *****    0.163805
   63   H63        5.445475167    -2.984552797     2.142397437       H   1  *****    0.178175
   64   H64       -5.841144263     2.343343515    -0.870100553       H   1  *****    0.207193
   65   H65       -4.675442950     2.900207685     0.365188453       H   1  *****    0.241095
   66   H66       -4.199746966     2.864550688    -1.342053600       H   1  *****    0.226211
   67   H67       -3.027054579    -0.065944829    -2.466593529       H   1  *****    0.147153
   68   H68       -3.925092339    -1.736324495    -4.072640581       H   1  *****    0.141923
   69   H69       -6.255609048    -2.558652788    -3.844225416       H   1  *****    0.130363
   70   H70       -7.693313531    -1.703997649    -2.010595419       H   1  *****    0.129423
   71   H71       -6.780955250    -0.057801427    -0.387107861       H   1  *****    0.162171
   72   H72        4.056057679     2.875102678    -1.763339231       H   1  *****    0.225357
   73   H73        4.601610329     3.016301240    -0.081861184       H   1  *****    0.238314
   74   H74        5.725526156     2.410479600    -1.333541090       H   1  *****    0.209438
   75   H75        6.709525825     0.005916694    -0.825099128       H   1  *****    0.159781
   76   H76        7.509116425    -1.710071664    -2.436338969       H   1  *****    0.134285
   77   H77        5.952273899    -2.633104835    -4.133042779       H   1  *****    0.128907
   78   H78        3.611481976    -1.815737765    -4.237537490       H   1  *****    0.144017
   79   H79        2.825450119    -0.074349569    -2.647096861       H   1  *****    0.148954


@<TRIPOS>BOND
    1      1      2    1
    2      1      6    2
    3      2      3    2
    4      3      4    1
    5      4      5    2
    6      5      6    1
    7      7      8    1
    8      7     12    2
    9      8      9    2
   10      9     10    1
   11     10     11    2
   12     11     12    1
   13      6      9    1
   14      4     13    1
   15     11     14    1
   16     13     15    2
   17     13     16    1
   18     14     17    1
   19     14     18    2
   20     19     20    2
   21     19     21    2
   22     19     22    1
   23     23     24    2
   24     23     25    2
   25     23     26    1
   26     27     28    2
   27     27     29    2
   28     27     30    1
   29     31     32    1
   30      1     31    1
   31      8     32    1
   32     33     34    1
   33      2     33    1
   34     35     36    1
   35      7     35    1
   36     16     37    1
   37     38     39    2
   38     38     43    1
   39     39     40    1
   40     40     41    2
   41     41     42    1
   42     42     43    2
   43     16     38    1
   44     17     44    1
   45     45     46    2
   46     45     50    1
   47     46     47    1
   48     47     48    2
   49     48     49    1
   50     49     50    2
   51     17     45    1
   52      5     51    1
   53     10     51    1
   54     29     51    1
   55     15     51    1
   56     25     51    1
   57     28     51    1
   58     24     51    1
   59     21     51    1
   60     20     51    1
   61     18     51    1
   62      3     52    1
   63     12     53    1
   64     31     54    1
   65     31     55    1
   66     32     56    1
   67     32     57    1
   68     34     58    1
   69     34     59    1
   70     34     60    1
   71     36     61    1
   72     36     62    1
   73     36     63    1
   74     37     64    1
   75     37     65    1
   76     37     66    1
   77     39     67    1
   78     40     68    1
   79     41     69    1
   80     42     70    1
   81     43     71    1
   82     44     72    1
   83     44     73    1
   84     44     74    1
   85     46     75    1
   86     47     76    1
   87     48     77    1
   88     49     78    1
   89     50     79    1
#
#	File Created by: Spartan '14 Export
#

@<TRIPOS>MOLECULE
*****
71 81
SMALL
USER_CHARGES


@<TRIPOS>ATOM
    1   C1        -1.426374866    -3.140118179     0.217591583     C.2   1  *****    0.000399
    2   C2        -2.770648051    -3.044335326     0.574089887     C.2   1  *****    0.162477
    3   C3        -3.357279159    -1.815313065     0.846844279     C.2   1  *****   -0.299545
    4   C4        -2.577445128    -0.672868949     0.704434879     C.2   1  *****    0.284255
    5   N5        -1.290110883    -0.743144281     0.361518528       N   1  *****   -0.466966
    6   C6        -0.720087407    -1.929389703     0.156537635     C.2   1  *****    0.238791
    7   C7         2.774293772    -3.038977469    -0.585985853     C.2   1  *****    0.162429
    8   C8         1.430307712    -3.137707354    -0.229310381     C.2   1  *****    0.002442
    9   C9         0.722879874    -1.927955240    -0.162548714     C.2   1  *****    0.241617
   10   N10        1.291684500    -0.740148047    -0.362107796       N   1  *****   -0.468694
   11   C11        2.578735359    -0.667071878    -0.705682669     C.2   1  *****    0.280290
   12   C12        3.359530226    -1.808138798    -0.853635389     C.2   1  *****   -0.300523
   13   C13       -3.003199104     0.737255829     1.034185130     C.2   1  *****    0.437183
   14   C14        3.003014620     0.745075391    -1.029108378     C.2   1  *****    0.444095
   15   O15       -2.111776222     1.535583142     1.351743044       O   1  *****   -0.444958
   16   N16       -4.301923849     1.098006902     1.054119992     N.3   1  *****   -0.216794
   17   N17        4.301430682     1.107050789    -1.047676893     N.3   1  *****   -0.219910
   18   O18        2.110684754     1.544168282    -1.342056469       O   1  *****   -0.446828
   19   N19       -1.684654875     0.885128212    -2.336994464       N   1  *****    0.870813
   20   O20       -0.463431480     0.548304053    -2.266990761       O   1  *****   -0.563586
   21   O21       -2.111777369     1.618294072    -1.377890932       O   1  *****   -0.575927
   22   O22       -2.419698205     0.515615257    -3.235418753       O   1  *****   -0.433159
   23   N23       -0.002107922     4.414020922     0.013481108       N   1  *****    0.890479
   24   O24       -0.239079602     3.724061572     1.067432070       O   1  *****   -0.596994
   25   O25        0.234840277     3.730097279    -1.044530231       O   1  *****   -0.596379
   26   O26       -0.002276093     5.623651179     0.016831113       O   1  *****   -0.413398
   27   N27        1.685270474     0.875212588     2.342396594       N   1  *****    0.874334
   28   O28        0.464619404     0.536512883     2.270879141       O   1  *****   -0.565165
   29   O29        2.110823060     1.614514626     1.387331012       O   1  *****   -0.577098
   30   O30        2.421133276     0.502316763     3.238763627       O   1  *****   -0.434117
   31   C31       -0.742647173    -4.417939504    -0.173264177     C.3   1  *****   -0.227553
   32   C32        0.747864925    -4.417839852     0.156294132     C.3   1  *****   -0.235586
   33   Cl33      -3.760015999    -4.471666426     0.682459106      Cl   1  *****   -0.066719
   34   Cl34       3.765225575    -4.464722570    -0.700977616      Cl   1  *****   -0.066115
   35   C35       -4.579679848     2.475876336     1.470601666     C.3   1  *****   -0.602944
   36   C36       -5.324980981     0.422405695     0.313410061     C.2   1  *****    0.499046
   37   C37       -5.190888396     0.255182620    -1.064453052     C.2   1  *****   -0.275964
   38   C38       -6.204407479    -0.385332887    -1.770830569     C.2   1  *****   -0.095839
   39   C39       -7.346454936    -0.835763034    -1.116217067     C.2   1  *****   -0.153079
   40   C40       -7.481277010    -0.646200481     0.257313427     C.2   1  *****   -0.099231
   41   C41       -6.471272283    -0.017231160     0.975923562     C.2   1  *****   -0.307413
   42   C42        4.577778080     2.487518849    -1.456294436     C.3   1  *****   -0.602604
   43   C43        5.324917661     0.429038077    -0.309785570     C.2   1  *****    0.497631
   44   C44        5.192075502     0.258153550     1.067756610     C.2   1  *****   -0.274726
   45   C45        6.205792563    -0.385307774     1.771152031     C.2   1  *****   -0.095631
   46   C46        7.346890359    -0.834597635     1.114031933     C.2   1  *****   -0.153884
   47   C47        7.480625953    -0.640858593    -0.259037911     C.2   1  *****   -0.099725
   48   C48        6.470356715    -0.009089623    -0.974759494     C.2   1  *****   -0.304558
   49   Nd49      -0.000542430     1.545311169     0.004803556      Nd   1  *****    1.822202
   50   H50       -4.395281570    -1.761188394     1.141480409       H   1  *****    0.145863
   51   H51        4.397325290    -1.751738594    -1.148530647       H   1  *****    0.146353
   52   H52       -0.881085647    -4.555572530    -1.254777263       H   1  *****    0.131501
   53   H53       -1.224813513    -5.272002147     0.305742972       H   1  *****    0.122778
   54   H54        0.886334324    -4.559627525     1.237266858       H   1  *****    0.133103
   55   H55        1.230876952    -5.269500082    -0.326128686       H   1  *****    0.123940
   56   H56       -5.640566658     2.556847442     1.704094954       H   1  *****    0.205800
   57   H57       -3.976225284     2.720850831     2.343452671       H   1  *****    0.237252
   58   H58       -4.325944640     3.172960272     0.665974829       H   1  *****    0.225659
   59   H59       -4.310940891     0.633413327    -1.575984431       H   1  *****    0.141885
   60   H60       -6.098301738    -0.518795382    -2.842359995       H   1  *****    0.146592
   61   H61       -8.134840323    -1.329404210    -1.675023530       H   1  *****    0.136188
   62   H62       -8.371455228    -0.992444400     0.772251145       H   1  *****    0.135347
   63   H63       -6.558928534     0.126871564     2.048432604       H   1  *****    0.156466
   64   H64        3.973082258     2.736937145    -2.327000696       H   1  *****    0.237180
   65   H65        4.324457993     3.179799173    -0.647415751       H   1  *****    0.225433
   66   H66        5.638350810     2.570556987    -1.690581006       H   1  *****    0.205839
   67   H67        4.312997090     0.635816170     1.581288547       H   1  *****    0.142101
   68   H68        6.100699635    -0.521941979     2.842390014       H   1  *****    0.146418
   69   H69        8.135467952    -1.330494969     1.670573735       H   1  *****    0.136461
   70   H70        8.370140039    -0.986017200    -0.775842084       H   1  *****    0.135210
   71   H71        6.557025553     0.138416508    -2.046879437       H   1  *****    0.155758


@<TRIPOS>BOND
    1      1      2    1
    2      1      6    2
    3      2      3    2
    4      3      4    1
    5      4      5    2
    6      5      6    1
    7      7      8    1
    8      7     12    2
    9      8      9    2
   10      9     10    1
   11     10     11    2
   12     11     12    1
   13      6      9    1
   14      4     13    1
   15     11     14    1
   16     13     15    2
   17     13     16    1
   18     14     17    1
   19     14     18    2
   20     19     20    2
   21     19     21    2
   22     19     22    1
   23     23     24    2
   24     23     25    2
   25     23     26    1
   26     27     28    2
   27     27     29    2
   28     27     30    1
   29     31     32    1
   30      1     31    1
   31      8     32    1
   32      2     33    1
   33      7     34    1
   34     16     35    1
   35     36     37    2
   36     36     41    1
   37     37     38    1
   38     38     39    2
   39     39     40    1
   40     40     41    2
   41     16     36    1
   42     17     42    1
   43     43     44    2
   44     43     48    1
   45     44     45    1
   46     45     46    2
   47     46     47    1
   48     47     48    2
   49     17     43    1
   50      5     49    1
   51     10     49    1
   52     29     49    1
   53     15     49    1
   54     25     49    1
   55     28     49    1
   56     24     49    1
   57     21     49    1
   58     20     49    1
   59     18     49    1
   60      3     50    1
   61     12     51    1
   62     31     52    1
   63     31     53    1
   64     32     54    1
   65     32     55    1
   66     35     56    1
   67     35     57    1
   68     35     58    1
   69     37     59    1
   70     38     60    1
   71     39     61    1
   72     40     62    1
   73     41     63    1
   74     42     64    1
   75     42     65    1
   76     42     66    1
   77     44     67    1
   78     45     68    1
   79     46     69    1
   80     47     70    1
   81     48     71    1
#
#	File Created by: Spartan '14 Export
#

@<TRIPOS>MOLECULE
*****
71 81
SMALL
USER_CHARGES


@<TRIPOS>ATOM
    1   C1        -1.403810480    -3.311457568     0.243337554     C.2   1  *****   -0.091154
    2   C2        -2.734330592    -3.219430774     0.626934702     C.2   1  *****    0.393866
    3   C3        -3.342889540    -2.006915293     0.903297460     C.2   1  *****   -0.422477
    4   C4        -2.576256325    -0.856776367     0.739493420     C.2   1  *****    0.291030
    5   N5        -1.292852645    -0.915378594     0.377565451       N   1  *****   -0.489616
    6   C6        -0.714333819    -2.097078808     0.165057375     C.2   1  *****    0.263315
    7   C7         2.740115258    -3.209969374    -0.646609963     C.2   1  *****    0.399354
    8   C8         1.410183391    -3.307147601    -0.262132340     C.2   1  *****   -0.093355
    9   C9         0.718862817    -2.094583679    -0.173463440     C.2   1  *****    0.264471
   10   N10        1.295334319    -0.910269741    -0.376747793       N   1  *****   -0.491207
   11   C11        2.578258163    -0.846744464    -0.739629882     C.2   1  *****    0.292040
   12   C12        3.346444658    -1.994295250    -0.913893409     C.2   1  *****   -0.425006
   13   C13       -3.004900634     0.553260490     1.065923386     C.2   1  *****    0.474164
   14   C14        3.004342126     0.566568781    -1.055153088     C.2   1  *****    0.475793
   15   O15       -2.114691101     1.358311373     1.368684097       O   1  *****   -0.455103
   16   N16       -4.306021989     0.905858614     1.094787888     N.3   1  *****   -0.234608
   17   N17        4.304829799     0.921593188    -1.081531832     N.3   1  *****   -0.236299
   18   O18        2.112550738     1.372201950    -1.351650181       O   1  *****   -0.455579
   19   N19       -1.702431973     0.701036543    -2.320679436       N   1  *****    0.873091
   20   O20       -0.477302767     0.375572662    -2.264315388       O   1  *****   -0.564666
   21   O21       -2.125692826     1.431628353    -1.358557891       O   1  *****   -0.578891
   22   O22       -2.444017448     0.322432614    -3.210385593       O   1  *****   -0.434310
   23   N23       -0.001771491     4.231086378     0.022943605       N   1  *****    0.890361
   24   O24       -0.221575561     3.539574297     1.079485461       O   1  *****   -0.597390
   25   O25        0.218159413     3.549227787    -1.039957642       O   1  *****   -0.596598
   26   O26       -0.001824211     5.440873553     0.028372898       O   1  *****   -0.414008
   27   N27        1.702587873     0.686365992     2.332776716       N   1  *****    0.871991
   28   O28        0.478328449     0.358036203     2.273638095       O   1  *****   -0.563531
   29   O29        2.123831253     1.426306942     1.376932873       O   1  *****   -0.576904
   30   O30        2.445186840     0.302278379     3.219265423       O   1  *****   -0.434570
   31   C31       -0.747354480    -4.603205302    -0.153292530     C.3   1  *****   -0.235770
   32   C32        0.755957785    -4.602925491     0.124933966     C.3   1  *****   -0.240686
   33   F33       -3.448784044    -4.341260624     0.741326983       F   1  *****   -0.165425
   34   F34        3.456142935    -4.329697092    -0.770933301       F   1  *****   -0.166528
   35   C35       -4.591416671     2.285065577     1.500060301     C.3   1  *****   -0.589823
   36   C36       -5.327802266     0.215979135     0.365869628     C.2   1  *****    0.483763
   37   C37       -5.202688419     0.043408340    -1.012206821     C.2   1  *****   -0.268302
   38   C38       -6.213458199    -0.613862130    -1.707000241     C.2   1  *****   -0.088268
   39   C39       -7.344382859    -1.075529832    -1.040833811     C.2   1  *****   -0.157774
   40   C40       -7.470859907    -0.879990873     0.332697183     C.2   1  *****   -0.082985
   41   C41       -6.463150356    -0.234318463     1.039752316     C.2   1  *****   -0.321126
   42   C42        4.587898800     2.304099437    -1.476981958     C.3   1  *****   -0.586618
   43   C43        5.327804281     0.228185602    -0.357499968     C.2   1  *****    0.480208
   44   C44        5.203221455     0.046258575     1.019416857     C.2   1  *****   -0.264610
   45   C45        6.215114266    -0.614167884     1.709595309     C.2   1  *****   -0.092565
   46   C46        7.346507957    -1.069822210     1.040083903     C.2   1  *****   -0.151727
   47   C47        7.472342689    -0.865146161    -0.332169973     C.2   1  *****   -0.087587
   48   C48        6.463593633    -0.216085889    -1.034636824     C.2   1  *****   -0.315929
   49   Nd49      -0.000839974     1.361694259     0.008999710      Nd   1  *****    1.829282
   50   H50       -4.378419206    -1.979834595     1.211842648       H   1  *****    0.187422
   51   H51        4.381498205    -1.963055896    -1.223671346       H   1  *****    0.187174
   52   H52       -0.922216388    -4.753215855    -1.227504532       H   1  *****    0.140082
   53   H53       -1.226317427    -5.443098009     0.354707396       H   1  *****    0.141135
   54   H54        0.930970919    -4.760417504     1.198043200       H   1  *****    0.140877
   55   H55        1.236413377    -5.438251784    -0.389125856       H   1  *****    0.142105
   56   H56       -5.648662275     2.357724079     1.752590484       H   1  *****    0.205789
   57   H57       -3.974382846     2.546111232     2.358527091       H   1  *****    0.233751
   58   H58       -4.360505248     2.975646818     0.682989494       H   1  *****    0.222951
   59   H59       -4.331040802     0.429348444    -1.532432703       H   1  *****    0.141302
   60   H60       -6.114362846    -0.751700435    -2.778679009       H   1  *****    0.143988
   61   H61       -8.130967780    -1.581900602    -1.590770070       H   1  *****    0.135800
   62   H62       -8.352679407    -1.234297335     0.856512557       H   1  *****    0.132056
   63   H63       -6.544020983    -0.085129048     2.112110237       H   1  *****    0.161736
   64   H64        3.969159841     2.570844052    -2.332461775       H   1  *****    0.233114
   65   H65        4.357562317     2.988291527    -0.654384116       H   1  *****    0.221904
   66   H66        5.644642643     2.379888501    -1.730688586       H   1  *****    0.204830
   67   H67        4.331017554     0.427282054     1.542340370       H   1  *****    0.140096
   68   H68        6.116488507    -0.759241328     2.780361096       H   1  *****    0.144537
   69   H69        8.133942506    -1.578698940     1.586486521       H   1  *****    0.134338
   70   H70        8.354459937    -1.214875229    -0.858540891       H   1  *****    0.132437
   71   H71        6.543906437    -0.059649618    -2.106001327       H   1  *****    0.160844


@<TRIPOS>BOND
    1      1      2    1
    2      1      6    2
    3      2      3    2
    4      3      4    1
    5      4      5    2
    6      5      6    1
    7      7      8    1
    8      7     12    2
    9      8      9    2
   10      9     10    1
   11     10     11    2
   12     11     12    1
   13      6      9    1
   14      4     13    1
   15     11     14    1
   16     13     15    2
   17     13     16    1
   18     14     17    1
   19     14     18    2
   20     19     20    2
   21     19     21    2
   22     19     22    1
   23     23     24    2
   24     23     25    2
   25     23     26    1
   26     27     28    2
   27     27     29    2
   28     27     30    1
   29     31     32    1
   30      1     31    1
   31      8     32    1
   32      2     33    1
   33      7     34    1
   34     16     35    1
   35     36     37    2
   36     36     41    1
   37     37     38    1
   38     38     39    2
   39     39     40    1
   40     40     41    2
   41     16     36    1
   42     17     42    1
   43     43     44    2
   44     43     48    1
   45     44     45    1
   46     45     46    2
   47     46     47    1
   48     47     48    2
   49     17     43    1
   50      5     49    1
   51     10     49    1
   52     29     49    1
   53     15     49    1
   54     25     49    1
   55     28     49    1
   56     24     49    1
   57     21     49    1
   58     20     49    1
   59     18     49    1
   60      3     50    1
   61     12     51    1
   62     31     52    1
   63     31     53    1
   64     32     54    1
   65     32     55    1
   66     35     56    1
   67     35     57    1
   68     35     58    1
   69     37     59    1
   70     38     60    1
   71     39     61    1
   72     40     62    1
   73     41     63    1
   74     42     64    1
   75     42     65    1
   76     42     66    1
   77     44     67    1
   78     45     68    1
   79     46     69    1
   80     47     70    1
   81     48     71    1
#
#	File Created by: Spartan '14 Export
#

@<TRIPOS>MOLECULE
*****
85 95
SMALL
USER_CHARGES


@<TRIPOS>ATOM
    1   C1        -1.446992779    -2.812177841     0.532261368     C.2   1  *****    0.015611
    2   C2        -2.790623398    -2.698610500     0.906707395     C.2   1  *****    0.181862
    3   C3        -3.340551194    -1.430192311     1.064470279     C.2   1  *****   -0.365185
    4   C4        -2.561936179    -0.305952417     0.808201287     C.2   1  *****    0.293423
    5   N5        -1.280070722    -0.417100450     0.459921172       N   1  *****   -0.501432
    6   C6        -0.723112099    -1.624819888     0.354515783     C.2   1  *****    0.253853
    7   C7         2.769891917    -2.852891040    -0.294336467     C.2   1  *****    0.116586
    8   C8         1.419393966    -2.876585098     0.070975081     C.2   1  *****    0.072954
    9   C9         0.717074543    -1.664569455     0.035090311     C.2   1  *****    0.231678
   10   N10        1.301694573    -0.501314179    -0.256981566       N   1  *****   -0.452586
   11   C11        2.590854308    -0.473243489    -0.595562213     C.2   1  *****    0.241013
   12   C12        3.347600347    -1.639607777    -0.654786957     C.2   1  *****   -0.289527
   13   C13       -2.976042785     1.128799352     1.008795348     C.2   1  *****    0.481826
   14   C14        3.042544590     0.903832635    -1.007456647     C.2   1  *****    0.476594
   15   O15       -2.082776188     1.949489858     1.258862673       O   1  *****   -0.460028
   16   N16       -4.274968279     1.497506527     0.989709311     N.3   1  *****   -0.250414
   17   N17        4.351250008     1.238016979    -1.039348811     N.3   1  *****   -0.241236
   18   O18        2.173239230     1.704235343    -1.377806178       O   1  *****   -0.460893
   19   N19        1.691680884     1.291179426     2.345618698       N   1  *****    0.865100
   20   O20        0.459045229     0.999394003     2.300958030       O   1  *****   -0.563518
   21   O21        2.148544359     1.925174984     1.332242228       O   1  *****   -0.574363
   22   O22        2.412896428     0.966934125     3.274259465       O   1  *****   -0.438782
   23   N23        0.063074836     4.662557291    -0.329124197       N   1  *****    0.884900
   24   O24        0.231492360     3.884409173    -1.331670087       O   1  *****   -0.595584
   25   O25       -0.110262929     4.074945657     0.797022776       O   1  *****   -0.595840
   26   O26        0.067364308     5.868434454    -0.435360514       O   1  *****   -0.416682
   27   N27       -1.636329488     1.015517743    -2.375215034       N   1  *****    0.881033
   28   O28       -0.415445508     0.685108316    -2.279314844       O   1  *****   -0.560425
   29   O29       -2.072218435     1.794431982    -1.457443108       O   1  *****   -0.575930
   30   O30       -2.363628144     0.602761077    -3.261490152       O   1  *****   -0.440046
   31   C31       -0.769406378    -4.123703796     0.247408426     C.3   1  *****   -0.323853
   32   C32        0.721449698    -4.108837613     0.576387329     C.3   1  *****   -0.408232
   33   C33       -3.641678263    -3.913481694     1.153706649     C.3   1  *****   -0.041347
   34   O34       -3.708426371    -4.677962443    -0.025935500     O.3   1  *****   -0.239679
   35   C35       -4.472473077    -5.848331593     0.135912057     C.3   1  *****   -0.392492
   36   C36        3.611043212    -4.100986300    -0.284039460     C.3   1  *****   -0.081179
   37   O37        3.090659712    -5.030487648    -1.207284221     O.3   1  *****   -0.178019
   38   C38        3.841721491    -6.221394631    -1.247666957     C.3   1  *****   -0.438101
   39   C39       -4.550664573     2.908557548     1.271853912     C.3   1  *****   -0.595416
   40   C40       -5.293441086     0.768501660     0.295132699     C.2   1  *****    0.481414
   41   C41       -5.148932667     0.489782438    -1.063542671     C.2   1  *****   -0.233947
   42   C42       -6.159440478    -0.202199437    -1.724273705     C.2   1  *****   -0.104937
   43   C43       -7.309948741    -0.592210446    -1.046007973     C.2   1  *****   -0.134544
   44   C44       -7.456051035    -0.290236224     0.306213822     C.2   1  *****   -0.101838
   45   C45       -6.448712293     0.390538837     0.979809132     C.2   1  *****   -0.319569
   46   C46        4.659482066     2.583919106    -1.530288180     C.3   1  *****   -0.584429
   47   C47        5.352819870     0.595916082    -0.243649410     C.2   1  *****    0.507302
   48   C48        5.193845117     0.502886900     1.138671697     C.2   1  *****   -0.283938
   49   C49        6.189958325    -0.104845309     1.896956687     C.2   1  *****   -0.093144
   50   C50        7.341161818    -0.596546311     1.289277559     C.2   1  *****   -0.164429
   51   C51        7.501855553    -0.480865988    -0.089634689     C.2   1  *****   -0.095874
   52   C52        6.508808971     0.114238612    -0.859092765     C.2   1  *****   -0.313187
   53   Nd53       0.039114045     1.802827833    -0.066838270      Nd   1  *****    1.826615
   54   H54       -4.374470397    -1.325598600     1.366000919       H   1  *****    0.142550
   55   H55        4.384331257    -1.607777727    -0.961896033       H   1  *****    0.130990
   56   H56       -0.909981052    -4.346409202    -0.818116221       H   1  *****    0.168551
   57   H57       -1.259249097    -4.939876672     0.782241400       H   1  *****    0.184266
   58   H58        0.853473082    -4.146129067     1.667978045       H   1  *****    0.160051
   59   H59        1.195828257    -4.999280586     0.162794193       H   1  *****    0.192621
   60   H60       -4.647813243    -3.603667781     1.474789989       H   1  *****    0.111857
   61   H61       -3.213176229    -4.513634770     1.975746825       H   1  *****    0.080119
   62   H62       -4.046039845    -6.509591736     0.905931135       H   1  *****    0.138971
   63   H63       -5.511175533    -5.617481489     0.414547658       H   1  *****    0.153205
   64   H64       -4.468545695    -6.368057065    -0.823300153       H   1  *****    0.190010
   65   H65        3.623906348    -4.535805849     0.730297945       H   1  *****    0.090670
   66   H66        4.652295106    -3.848505773    -0.534879327       H   1  *****    0.118436
   67   H67        3.849631532    -6.730514111    -0.272117435       H   1  *****    0.154372
   68   H68        3.370636107    -6.871223223    -1.986594655       H   1  *****    0.193286
   69   H69        4.882317035    -6.031583870    -1.548413399       H   1  *****    0.162200
   70   H70       -5.601037472     3.007121210     1.544802720       H   1  *****    0.205240
   71   H71       -3.910689029     3.246415170     2.085189336       H   1  *****    0.236697
   72   H72       -4.343595591     3.519962983     0.387818992       H   1  *****    0.221067
   73   H73       -4.262225376     0.821025256    -1.595739077       H   1  *****    0.133672
   74   H74       -6.044304155    -0.423379032    -2.780238285       H   1  *****    0.144470
   75   H75       -8.096669889    -1.124609407    -1.570841505       H   1  *****    0.127560
   76   H76       -8.354173309    -0.586414503     0.838717729       H   1  *****    0.129309
   77   H77       -6.544881723     0.624792450     2.035616466       H   1  *****    0.160319
   78   H78        4.428624884     3.329604131    -0.763054659       H   1  *****    0.221248
   79   H79        5.720378691     2.627587940    -1.774529981       H   1  *****    0.200670
   80   H80        4.055842534     2.795606126    -2.411514103       H   1  *****    0.231772
   81   H81        4.307892912     0.913738965     1.613449513       H   1  *****    0.145780
   82   H82        6.063690014    -0.178082387     2.972226678       H   1  *****    0.144779
   83   H83        8.117135134    -1.061933097     1.888544500       H   1  *****    0.134610
   84   H84        8.400191917    -0.856763426    -0.568800952       H   1  *****    0.131470
   85   H85        6.617694436     0.200570467    -1.935936223       H   1  *****    0.158042


@<TRIPOS>BOND
    1      1      2    1
    2      1      6    2
    3      2      3    2
    4      3      4    1
    5      4      5    2
    6      5      6    1
    7      7      8    1
    8      7     12    2
    9      8      9    2
   10      9     10    1
   11     10     11    2
   12     11     12    1
   13      6      9    1
   14      4     13    1
   15     11     14    1
   16     13     15    2
   17     13     16    1
   18     14     17    1
   19     14     18    2
   20     19     20    2
   21     19     21    2
   22     19     22    1
   23     23     24    2
   24     23     25    2
   25     23     26    1
   26     27     28    2
   27     27     29    2
   28     27     30    1
   29     31     32    1
   30      1     31    1
   31      8     32    1
   32     33     34    1
   33     34     35    1
   34      2     33    1
   35     36     37    1
   36     37     38    1
   37      7     36    1
   38     16     39    1
   39     40     41    2
   40     40     45    1
   41     41     42    1
   42     42     43    2
   43     43     44    1
   44     44     45    2
   45     16     40    1
   46     17     46    1
   47     47     48    2
   48     47     52    1
   49     48     49    1
   50     49     50    2
   51     50     51    1
   52     51     52    2
   53     17     47    1
   54      5     53    1
   55     10     53    1
   56     29     53    1
   57     15     53    1
   58     25     53    1
   59     28     53    1
   60     24     53    1
   61     21     53    1
   62     20     53    1
   63     18     53    1
   64      3     54    1
   65     12     55    1
   66     31     56    1
   67     31     57    1
   68     32     58    1
   69     32     59    1
   70     33     60    1
   71     33     61    1
   72     35     62    1
   73     35     63    1
   74     35     64    1
   75     36     65    1
   76     36     66    1
   77     38     67    1
   78     38     68    1
   79     38     69    1
   80     39     70    1
   81     39     71    1
   82     39     72    1
   83     41     73    1
   84     42     74    1
   85     43     75    1
   86     44     76    1
   87     45     77    1
   88     46     78    1
   89     46     79    1
   90     46     80    1
   91     48     81    1
   92     49     82    1
   93     50     83    1
   94     51     84    1
   95     52     85    1
#
#	File Created by: Spartan '14 Export
#

@<TRIPOS>MOLECULE
*****
75 85
SMALL
USER_CHARGES


@<TRIPOS>ATOM
    1   C1        -1.336011438    -2.948498141     0.636012411     C.2   1  *****    0.108409
    2   C2        -2.728422614    -2.856635179     0.582387113     C.2   1  *****    0.016723
    3   C3        -3.380657979    -1.640529616     0.441658323     C.2   1  *****   -0.328152
    4   C4        -2.608986704    -0.486564571     0.378932852     C.2   1  *****    0.380346
    5   N5        -1.283436131    -0.541535633     0.480204608       N   1  *****   -0.544807
    6   C6        -0.664451171    -1.715343847     0.584552094     C.2   1  *****    0.229245
    7   C7         2.952781756    -2.617441726     0.858399297     C.2   1  *****    0.071793
    8   C8         1.570541842    -2.803465094     0.917770223     C.2   1  *****   -0.051243
    9   C9         0.812181190    -1.664406490     0.598587122     C.2   1  *****    0.355660
   10   N10        1.349794221    -0.479932187     0.316904562       N   1  *****   -0.594942
   11   C11        2.669059749    -0.346068000     0.216614867     C.2   1  *****    0.406185
   12   C12        3.521551276    -1.414063142     0.468149020     C.2   1  *****   -0.370245
   13   C13       -3.140386204     0.922214140     0.297450000     C.2   1  *****    0.478247
   14   C14        3.112394343     1.071553044    -0.039359835     C.2   1  *****    0.493944
   15   O15       -2.473330112     1.823844562     0.821784484       O   1  *****   -0.499406
   16   N16       -4.325972940     1.174064401    -0.289840655     N.3   1  *****   -0.226466
   17   N17        4.224082603     1.305055918    -0.762224535     N.3   1  *****   -0.206169
   18   O18        2.453931667     1.988847306     0.465976369       O   1  *****   -0.502057
   19   N19       -0.174505622     1.265330297    -2.264693489       N   1  *****    0.891244
   20   O20        0.939430338     1.495997482    -1.699439461       O   1  *****   -0.570605
   21   O21       -1.204339672     1.467604301    -1.541586783       O   1  *****   -0.565475
   22   O22       -0.257016481     0.861762031    -3.412184942       O   1  *****   -0.447305
   23   N23       -0.095244932     4.610543267     1.067698336       N   1  *****    0.895042
   24   O24        0.019273424     3.801841275     2.056178229       O   1  *****   -0.594381
   25   O25       -0.165501425     4.050836624    -0.086479598       O   1  *****   -0.610083
   26   O26       -0.134965747     5.808753107     1.208828485       O   1  *****   -0.400447
   27   N27        0.245755405     0.676515622     3.437993989       N   1  *****    0.911110
   28   O28       -0.886210418     0.890844126     2.885906939       O   1  *****   -0.575953
   29   O29        1.262469445     0.981726855     2.724663472       O   1  *****   -0.586052
   30   O30        0.350254231     0.201767914     4.549485550       O   1  *****   -0.446563
   31   C31       -0.506991081    -4.203849884     0.617731209     C.3   1  *****   -0.499191
   32   C32        0.837306356    -4.049838722     1.328216368     C.3   1  *****   -0.204603
   33   N33       -3.603851163    -4.044390153     0.651252356       N   1  *****    0.734781
   34   O34       -3.207211691    -5.019368572     1.275448757     O.2   1  *****   -0.388195
   35   O35       -4.687729764    -3.959257415     0.093014541     O.2   1  *****   -0.383045
   36   N36        3.890506183    -3.694707525     1.216174293       N   1  *****    0.742683
   37   O37        5.002207248    -3.655100704     0.709024659     O.2   1  *****   -0.386300
   38   O38        3.501153759    -4.543249452     2.008450006     O.2   1  *****   -0.403254
   39   C39       -4.791669657     2.563048955    -0.240156158     C.3   1  *****   -0.568939
   40   C40       -4.880048119     0.326881460    -1.304209013     C.2   1  *****    0.449525
   41   C41       -4.112919085    -0.003416269    -2.422168821     C.2   1  *****   -0.244518
   42   C42       -4.667986903    -0.814476071    -3.407176345     C.2   1  *****   -0.122910
   43   C43       -5.975555521    -1.274679844    -3.288578551     C.2   1  *****   -0.131515
   44   C44       -6.740412250    -0.921689658    -2.179293807     C.2   1  *****   -0.081349
   45   C45       -6.196029078    -0.118530161    -1.184319224     C.2   1  *****   -0.305895
   46   C46        4.635493516     2.704448992    -0.899231284     C.3   1  *****   -0.578247
   47   C47        4.691726002     0.375402315    -1.747872193     C.2   1  *****    0.429606
   48   C48        6.020056535    -0.046367219    -1.722519601     C.2   1  *****   -0.281186
   49   C49        6.478169534    -0.924215500    -2.697532270     C.2   1  *****   -0.098985
   50   C50        5.613534344    -1.375683077    -3.691925539     C.2   1  *****   -0.129559
   51   C51        4.292302756    -0.940101053    -3.717649283     C.2   1  *****   -0.121255
   52   C52        3.823481214    -0.054211199    -2.752639344     C.2   1  *****   -0.244942
   53   Nd53      -0.005302177     1.782598373     0.728849019      Nd   1  *****    1.879708
   54   H54       -4.458502688    -1.619359459     0.369754375       H   1  *****    0.167551
   55   H55        4.595983194    -1.329050812     0.389334740       H   1  *****    0.171375
   56   H56       -0.331549026    -4.462629055    -0.436618404       H   1  *****    0.183073
   57   H57       -1.054660426    -5.033529411     1.056496091       H   1  *****    0.223008
   58   H58        0.687155884    -4.008906362     2.414897065       H   1  *****    0.161123
   59   H59        1.441660009    -4.938502111     1.152721277       H   1  *****    0.164652
   60   H60       -5.849285749     2.580592529    -0.500062763       H   1  *****    0.202430
   61   H61       -4.640621904     2.959455564     0.762843356       H   1  *****    0.231436
   62   H62       -4.227872797     3.177308621    -0.948838613       H   1  *****    0.222525
   63   H63       -3.102501246     0.385234568    -2.518078378       H   1  *****    0.134611
   64   H64       -4.074559856    -1.074443375    -4.277622125       H   1  *****    0.148278
   65   H65       -6.402385894    -1.904424436    -4.062146977       H   1  *****    0.134543
   66   H66       -7.760928552    -1.277231474    -2.084191736       H   1  *****    0.135535
   67   H67       -6.779017234     0.155886922    -0.310552365       H   1  *****    0.164408
   68   H68        3.981093292     3.225738440    -1.604586146       H   1  *****    0.222709
   69   H69        4.569312705     3.198841086     0.069172188       H   1  *****    0.231450
   70   H70        5.661321057     2.727852005    -1.265135875       H   1  *****    0.202236
   71   H71        6.680613265     0.306941243    -0.936710996       H   1  *****    0.157764
   72   H72        7.509256825    -1.260882387    -2.676313748       H   1  *****    0.139758
   73   H73        5.973272146    -2.063126570    -4.450512095       H   1  *****    0.134312
   74   H74        3.621659684    -1.278443068    -4.500767732       H   1  *****    0.146473
   75   H75        2.802696679     0.318817914    -2.777856193       H   1  *****    0.140741


@<TRIPOS>BOND
    1      1      2    1
    2      1      6    2
    3      2      3    2
    4      3      4    1
    5      4      5    2
    6      5      6    1
    7      7      8    1
    8      7     12    2
    9      8      9    2
   10      9     10    1
   11     10     11    2
   12     11     12    1
   13      6      9    1
   14      4     13    1
   15     11     14    1
   16     13     15    2
   17     13     16    1
   18     14     17    1
   19     14     18    2
   20     19     20    2
   21     19     21    2
   22     19     22    1
   23     23     24    2
   24     23     25    2
   25     23     26    1
   26     27     28    2
   27     27     29    2
   28     27     30    1
   29     31     32    1
   30      1     31    1
   31      8     32    1
   32     33     34    2
   33     33     35    2
   34      2     33    1
   35     36     37    2
   36     36     38    2
   37      7     36    1
   38     16     39    1
   39     40     41    2
   40     40     45    1
   41     41     42    1
   42     42     43    2
   43     43     44    1
   44     44     45    2
   45     16     40    1
   46     17     46    1
   47     47     48    2
   48     47     52    1
   49     48     49    1
   50     49     50    2
   51     50     51    1
   52     51     52    2
   53     17     47    1
   54      5     53    1
   55     10     53    1
   56     29     53    1
   57     15     53    1
   58     25     53    1
   59     28     53    1
   60     24     53    1
   61     21     53    1
   62     20     53    1
   63     18     53    1
   64      3     54    1
   65     12     55    1
   66     31     56    1
   67     31     57    1
   68     32     58    1
   69     32     59    1
   70     39     60    1
   71     39     61    1
   72     39     62    1
   73     41     63    1
   74     42     64    1
   75     43     65    1
   76     44     66    1
   77     45     67    1
   78     46     68    1
   79     46     69    1
   80     46     70    1
   81     48     71    1
   82     49     72    1
   83     50     73    1
   84     51     74    1
   85     52     75    1
#
#	File Created by: Spartan '14 Export
#

@<TRIPOS>MOLECULE
*****
74 84
SMALL
USER_CHARGES


@<TRIPOS>ATOM
    1   C1        -1.130934576    -3.203783435     0.369183589     C.2   1  *****   -0.032788
    2   C2        -2.443057474    -3.324481496     0.809159182     C.2   1  *****   -0.013614
    3   C3        -3.185297209    -2.153738707     1.038130567     C.2   1  *****   -0.316150
    4   C4        -2.614753165    -0.893907387     0.814370843     C.2   1  *****    0.317696
    5   N5        -1.358399564    -0.786608017     0.383587373       N   1  *****   -0.448068
    6   C6        -0.683914386    -1.900062185     0.198958538     C.2   1  *****    0.207630
    7   C7         2.459969379    -3.318904804    -0.779895576     C.2   1  *****   -0.018748
    8   C8         1.143965285    -3.201149054    -0.350988016     C.2   1  *****   -0.026930
    9   C9         0.686142139    -1.898235387    -0.205268514     C.2   1  *****    0.190525
   10   N10        1.354624574    -0.782977807    -0.400311292       N   1  *****   -0.443377
   11   C11        2.616188656    -0.887374580    -0.816545848     C.2   1  *****    0.322504
   12   C12        3.196228804    -2.146478035    -1.019353724     C.2   1  *****   -0.314212
   13   C13       -3.153036057     0.483786448     1.127994921     C.2   1  *****    0.408926
   14   C14        3.151503804     0.491320235    -1.132297333     C.2   1  *****    0.399295
   15   O15       -2.324075593     1.358946041     1.394622721       O   1  *****   -0.425923
   16   N16       -4.484479823     0.719175379     1.157983283     N.3   1  *****   -0.232431
   17   N17        4.482514515     0.730276974    -1.162813512     N.3   1  *****   -0.231237
   18   O18        2.321184951     1.364758395    -1.400055348       O   1  *****   -0.422926
   19   N19        1.707886516     0.776995270     2.281443240       N   1  *****    0.873135
   20   O20        0.478236822     0.448546616     2.227818465       O   1  *****   -0.583042
   21   O21        2.116738535     1.546534228     1.347553913       O   1  *****   -0.574071
   22   O22        2.456433338     0.359287075     3.146343754       O   1  *****   -0.429074
   23   N23       -0.002264523     4.297952273     0.009280705       N   1  *****    0.885374
   24   O24        0.399078359     3.614235279    -0.999465125       O   1  *****   -0.594783
   25   O25       -0.404849350     3.605964517     1.011648230       O   1  *****   -0.594843
   26   O26       -0.001269225     5.506202064     0.014564266       O   1  *****   -0.404486
   27   N27       -1.713378464     0.791538785    -2.291807106       N   1  *****    0.869917
   28   O28       -0.482112718     0.468746895    -2.242897503       O   1  *****   -0.581623
   29   O29       -2.124448443     1.550925016    -1.350358854       O   1  *****   -0.573868
   30   O30       -2.461389506     0.377975274    -3.159038121       O   1  *****   -0.427792
   31   C31        0.010514822    -4.177181502     0.017850637     C.3   1  *****    0.436554
   32   C32        0.396178115    -5.037033202     1.231271180     C.3   1  *****   -0.784907
   33   C33       -0.366684441    -5.065433905    -1.177462361     C.3   1  *****   -0.785724
   34   H34       -2.906964848    -4.289554041     0.990226622       H   1  *****    0.129681
   35   H35        2.932514360    -4.283182709    -0.942026590       H   1  *****    0.130798
   36   C36       -4.901499925     2.069254486     1.539790256     C.3   1  *****   -0.551838
   37   C37       -5.409542788    -0.066176217     0.400180016     C.2   1  *****    0.458895
   38   C38       -5.227860868    -0.216095867    -0.975074624     C.2   1  *****   -0.258521
   39   C39       -6.139408194    -0.974929882    -1.702623310     C.2   1  *****   -0.104420
   40   C40       -7.232861746    -1.560014418    -1.071468771     C.2   1  *****   -0.146960
   41   C41       -7.420600391    -1.386254000     0.297998942     C.2   1  *****   -0.094167
   42   C42       -6.509910655    -0.639853922     1.036843001     C.2   1  *****   -0.295998
   43   C43        4.894849083     2.081071412    -1.547275172     C.3   1  *****   -0.557545
   44   C44        5.411130863    -0.051202020    -0.405689817     C.2   1  *****    0.463237
   45   C45        5.229978450    -0.203911469     0.969341751     C.2   1  *****   -0.256135
   46   C46        6.144481409    -0.960159369     1.695858032     C.2   1  *****   -0.105633
   47   C47        7.240488111    -1.539739652     1.064074897     C.2   1  *****   -0.147323
   48   C48        7.427757013    -1.362991562    -0.305087654     C.2   1  *****   -0.093379
   49   C49        6.514034131    -0.619360477    -1.042991057     C.2   1  *****   -0.300503
   50   Nd50      -0.003449409     1.442475040    -0.003402462      Nd   1  *****    1.835658
   51   H51       -4.206862746    -2.229870345     1.387797478       H   1  *****    0.145191
   52   H52        4.221514967    -2.221108571    -1.358126838       H   1  *****    0.145412
   53   H53       -0.444555854    -5.668803248     1.533576630       H   1  *****    0.218987
   54   H54        1.236637103    -5.693272429     0.985564129       H   1  *****    0.216372
   55   H55        0.683097518    -4.416668959     2.084264686       H   1  *****    0.201870
   56   H56       -0.657319075    -4.465358994    -2.043614615       H   1  *****    0.201851
   57   H57        0.479806590    -5.696301896    -1.465095537       H   1  *****    0.219114
   58   H58       -1.202149165    -5.723426889    -0.919571564       H   1  *****    0.216431
   59   H59       -4.787591194     2.757813897     0.696455806       H   1  *****    0.212952
   60   H60       -5.947064779     2.036985013     1.846309469       H   1  *****    0.192123
   61   H61       -4.274887403     2.418245611     2.358925250       H   1  *****    0.225562
   62   H62       -4.388999222     0.264722808    -1.470853403       H   1  *****    0.143351
   63   H63       -5.993954173    -1.095106675    -2.771137312       H   1  *****    0.146185
   64   H64       -7.943873555    -2.144710376    -1.646171989       H   1  *****    0.131685
   65   H65       -8.275008142    -1.835887585     0.793700133       H   1  *****    0.129891
   66   H66       -6.638167318    -0.506155863     2.106687263       H   1  *****    0.154797
   67   H67        4.270265665     2.424752438    -2.370227383       H   1  *****    0.227255
   68   H68        4.774193121     2.771968008    -0.706799394       H   1  *****    0.214340
   69   H69        5.941823585     2.052400128    -1.849174050       H   1  *****    0.193644
   70   H70        4.389057595     0.272524269     1.465840118       H   1  *****    0.141746
   71   H71        5.999287238    -1.082616369     2.764152948       H   1  *****    0.146520
   72   H72        7.953806769    -2.122368293     1.638019663       H   1  *****    0.131730
   73   H73        8.284143123    -1.808227254    -0.801346834       H   1  *****    0.130012
   74   H74        6.641716493    -0.484013914    -2.112680219       H   1  *****    0.156191


@<TRIPOS>BOND
    1      1      2    1
    2      1      6    2
    3      2      3    2
    4      3      4    1
    5      4      5    2
    6      5      6    1
    7      7      8    1
    8      7     12    2
    9      8      9    2
   10      9     10    1
   11     10     11    2
   12     11     12    1
   13      6      9    1
   14      4     13    1
   15     11     14    1
   16     13     15    2
   17     13     16    1
   18     14     17    1
   19     14     18    2
   20     19     20    2
   21     19     21    2
   22     19     22    1
   23     23     24    2
   24     23     25    2
   25     23     26    1
   26     27     28    2
   27     27     29    2
   28     27     30    1
   29     31     32    1
   30     31     33    1
   31      1     31    1
   32      8     31    1
   33      2     34    1
   34      7     35    1
   35     16     36    1
   36     37     38    2
   37     37     42    1
   38     38     39    1
   39     39     40    2
   40     40     41    1
   41     41     42    2
   42     16     37    1
   43     17     43    1
   44     44     45    2
   45     44     49    1
   46     45     46    1
   47     46     47    2
   48     47     48    1
   49     48     49    2
   50     17     44    1
   51      5     50    1
   52     10     50    1
   53     29     50    1
   54     15     50    1
   55     25     50    1
   56     28     50    1
   57     24     50    1
   58     21     50    1
   59     20     50    1
   60     18     50    1
   61      3     51    1
   62     12     52    1
   63     32     53    1
   64     32     54    1
   65     32     55    1
   66     33     56    1
   67     33     57    1
   68     33     58    1
   69     36     59    1
   70     36     60    1
   71     36     61    1
   72     38     62    1
   73     39     63    1
   74     40     64    1
   75     41     65    1
   76     42     66    1
   77     43     67    1
   78     43     68    1
   79     43     69    1
   80     45     70    1
   81     46     71    1
   82     47     72    1
   83     48     73    1
   84     49     74    1
#
#	File Created by: Spartan '14 Export
#

@<TRIPOS>MOLECULE
*****
82 92
SMALL
USER_CHARGES


@<TRIPOS>ATOM
    1   C1        -1.140276989    -2.842310213     0.307597624     C.2   1  *****   -0.370201
    2   C2        -2.474274754    -2.969810281     0.707822031     C.2   1  *****    0.580105
    3   C3        -3.218028409    -1.789729831     0.926457609     C.2   1  *****   -0.513423
    4   C4        -2.634271834    -0.537103575     0.718053227     C.2   1  *****    0.333398
    5   N5        -1.371403518    -0.418761347     0.315326234       N   1  *****   -0.541583
    6   C6        -0.699800529    -1.542013191     0.150044516     C.2   1  *****    0.335819
    7   C7         2.486259895    -2.955927295    -0.703133886     C.2   1  *****    0.564642
    8   C8         1.142956795    -2.836266222    -0.333225479     C.2   1  *****   -0.341494
    9   C9         0.683550181    -1.538181633    -0.216615297     C.2   1  *****    0.290504
   10   N10        1.346978443    -0.411379469    -0.388055750       N   1  *****   -0.505820
   11   C11        2.621553747    -0.521521020    -0.755063358     C.2   1  *****    0.315382
   12   C12        3.221629636    -1.771928356    -0.929819666     C.2   1  *****   -0.502243
   13   C13       -3.195807009     0.832576003     1.026001690     C.2   1  *****    0.455482
   14   C14        3.181809778     0.854327294    -1.041297988     C.2   1  *****    0.449683
   15   O15       -2.387323115     1.710163183     1.338452262       O   1  *****   -0.430383
   16   N16       -4.531033974     1.057213173     0.998623315     N.3   1  *****   -0.254288
   17   N17        4.516971991     1.081568977    -1.015743471     N.3   1  *****   -0.246003
   18   O18        2.373041504     1.738424533    -1.334448783       O   1  *****   -0.429346
   19   N19        1.652138554     1.121835368     2.324103823       N   1  *****    0.881112
   20   O20        0.422336128     0.803133917     2.245998611       O   1  *****   -0.583239
   21   O21        2.086721512     1.889226729     1.400364593       O   1  *****   -0.579551
   22   O22        2.380976306     0.696626983     3.203368098       O   1  *****   -0.435247
   23   N23        0.007794980     4.653136532     0.097066852       N   1  *****    0.890444
   24   O24        0.427937782     3.996556973    -0.921969861       O   1  *****   -0.600386
   25   O25       -0.420674394     3.936497192     1.070065552       O   1  *****   -0.599220
   26   O26        0.015310527     5.861323021     0.136128509       O   1  *****   -0.407790
   27   N27       -1.666343684     1.232783417    -2.344806046       N   1  *****    0.880647
   28   O28       -0.433514206     0.921467308    -2.289195417       O   1  *****   -0.586808
   29   O29       -2.101021389     1.952827406    -1.383267290       O   1  *****   -0.579263
   30   O30       -2.397527935     0.843984038    -3.238609970       O   1  *****   -0.432538
   31   C31        0.008457377    -3.817012715     0.002761414     C.3   1  *****    0.529013
   32   C32        0.356737217    -4.664593455     1.237400945     C.3   1  *****   -0.723931
   33   C33       -0.323950980    -4.718348799    -1.197003740     C.3   1  *****   -0.738263
   34   O34       -2.965806064    -4.210028700     0.872846291     O.3   1  *****   -0.223034
   35   C35       -4.321656076    -4.362220157     1.269421454     C.3   1  *****   -0.433357
   36   O36        2.997399780    -4.193247744    -0.825188841     O.3   1  *****   -0.220947
   37   C37        4.366100710    -4.337003659    -1.178877001     C.3   1  *****   -0.434674
   38   C38       -4.978071259     2.402852345     1.359264611     C.3   1  *****   -0.573614
   39   C39       -5.414367986     0.258523177     0.206704319     C.2   1  *****    0.498101
   40   C40       -5.182442642     0.114420224    -1.161509687     C.2   1  *****   -0.285219
   41   C41       -6.041157559    -0.677450812    -1.917641378     C.2   1  *****   -0.084486
   42   C42       -7.133084547    -1.302150816    -1.322020376     C.2   1  *****   -0.157192
   43   C43       -7.374948762    -1.130680003     0.039607404     C.2   1  *****   -0.099859
   44   C44       -6.516824219    -0.350024009     0.806440844     C.2   1  *****   -0.304645
   45   C45        4.957138663     2.434660565    -1.357274768     C.3   1  *****   -0.577967
   46   C46        5.408584330     0.274765699    -0.242052525     C.2   1  *****    0.489049
   47   C47        5.181647175     0.101564946     1.123644340     C.2   1  *****   -0.278727
   48   C48        6.047694203    -0.699563093     1.861214731     C.2   1  *****   -0.080733
   49   C49        7.142570473    -1.304384560     1.250362387     C.2   1  *****   -0.161028
   50   C50        7.379346897    -1.103927087    -0.108292888     C.2   1  *****   -0.097776
   51   C51        6.513408158    -0.314328609    -0.856952524     C.2   1  *****   -0.306302
   52   Nd52      -0.005711302     1.797007891     0.001361145      Nd   1  *****    1.855551
   53   H53       -4.247333894    -1.847411737     1.249007191       H   1  *****    0.164813
   54   H54        4.259323423    -1.825908542    -1.224348652       H   1  *****    0.164889
   55   H55       -0.497983422    -5.286811201     1.514899092       H   1  *****    0.201464
   56   H56        1.207970677    -5.314601161     1.018726552       H   1  *****    0.199843
   57   H57        0.615097641    -4.031314657     2.090435571       H   1  *****    0.196082
   58   H58       -0.589087427    -4.123876878    -2.075518352       H   1  *****    0.199523
   59   H59        0.540874509    -5.338288790    -1.446868042       H   1  *****    0.203366
   60   H60       -1.166171905    -5.372125945    -0.955396073       H   1  *****    0.203787
   61   H61       -4.498961148    -5.436147930     1.305593370       H   1  *****    0.204709
   62   H62       -4.492543715    -3.930165573     2.261105278       H   1  *****    0.182522
   63   H63       -5.000699929    -3.899924639     0.545345582       H   1  *****    0.176838
   64   H64        4.557518587    -5.409115037    -1.184336733       H   1  *****    0.204688
   65   H65        4.560471529    -3.926077482    -2.175114145       H   1  *****    0.182812
   66   H66        5.017841114    -3.848793005    -0.446830652       H   1  *****    0.176860
   67   H67       -4.855928973     3.086306136     0.512779533       H   1  *****    0.216637
   68   H68       -6.029855691     2.357429224     1.642945848       H   1  *****    0.196675
   69   H69       -4.375015418     2.767741951     2.188969906       H   1  *****    0.231054
   70   H70       -4.341899123     0.620159986    -1.628998748       H   1  *****    0.150048
   71   H71       -5.854654160    -0.794839866    -2.980059913       H   1  *****    0.143480
   72   H72       -7.802762693    -1.912969363    -1.918999735       H   1  *****    0.132486
   73   H73       -8.231974328    -1.606102976     0.506289953       H   1  *****    0.129088
   74   H74       -6.685949380    -0.217341544     1.870779777       H   1  *****    0.153785
   75   H75        4.356847824     2.805990666    -2.186116726       H   1  *****    0.231760
   76   H76        4.825480102     3.106963891    -0.503353296       H   1  *****    0.217355
   77   H77        6.010864931     2.399380434    -1.634997107       H   1  *****    0.198278
   78   H78        4.337884480     0.590108666     1.603350038       H   1  *****    0.149209
   79   H79        5.864724810    -0.839611515     2.921504791       H   1  *****    0.141786
   80   H80        7.818437206    -1.921859616     1.833370970       H   1  *****    0.133412
   81   H81        8.238103831    -1.563999087    -0.586960455       H   1  *****    0.129144
   82   H82        6.677833003    -0.160798074    -1.919180884       H   1  *****    0.155259


@<TRIPOS>BOND
    1      1      2    1
    2      1      6    2
    3      2      3    2
    4      3      4    1
    5      4      5    2
    6      5      6    1
    7      7      8    1
    8      7     12    2
    9      8      9    2
   10      9     10    1
   11     10     11    2
   12     11     12    1
   13      6      9    1
   14      4     13    1
   15     11     14    1
   16     13     15    2
   17     13     16    1
   18     14     17    1
   19     14     18    2
   20     19     20    2
   21     19     21    2
   22     19     22    1
   23     23     24    2
   24     23     25    2
   25     23     26    1
   26     27     28    2
   27     27     29    2
   28     27     30    1
   29     31     32    1
   30     31     33    1
   31      1     31    1
   32      8     31    1
   33     34     35    1
   34      2     34    1
   35     36     37    1
   36      7     36    1
   37     16     38    1
   38     39     40    2
   39     39     44    1
   40     40     41    1
   41     41     42    2
   42     42     43    1
   43     43     44    2
   44     16     39    1
   45     17     45    1
   46     46     47    2
   47     46     51    1
   48     47     48    1
   49     48     49    2
   50     49     50    1
   51     50     51    2
   52     17     46    1
   53      5     52    1
   54     10     52    1
   55     29     52    1
   56     15     52    1
   57     25     52    1
   58     28     52    1
   59     24     52    1
   60     21     52    1
   61     20     52    1
   62     18     52    1
   63      3     53    1
   64     12     54    1
   65     32     55    1
   66     32     56    1
   67     32     57    1
   68     33     58    1
   69     33     59    1
   70     33     60    1
   71     35     61    1
   72     35     62    1
   73     35     63    1
   74     37     64    1
   75     37     65    1
   76     37     66    1
   77     38     67    1
   78     38     68    1
   79     38     69    1
   80     40     70    1
   81     41     71    1
   82     42     72    1
   83     43     73    1
   84     44     74    1
   85     45     75    1
   86     45     76    1
   87     45     77    1
   88     47     78    1
   89     48     79    1
   90     49     80    1
   91     50     81    1
   92     51     82    1
#
#	File Created by: Spartan '14 Export
#

@<TRIPOS>MOLECULE
*****
74 84
SMALL
USER_CHARGES


@<TRIPOS>ATOM
    1   C1        -1.144678894    -2.847596056     0.342227147     C.2   1  *****   -0.099798
    2   C2        -2.472907144    -2.938597130     0.739656616     C.2   1  *****    0.216481
    3   C3        -3.220813019    -1.768623807     0.949744352     C.2   1  *****   -0.362361
    4   C4        -2.629757338    -0.517956770     0.745705338     C.2   1  *****    0.334036
    5   N5        -1.360010878    -0.421717130     0.354886328       N   1  *****   -0.472601
    6   C6        -0.692895798    -1.542130077     0.190120184     C.2   1  *****    0.237295
    7   C7         2.469738520    -2.945270622    -0.715310119     C.2   1  *****    0.212350
    8   C8         1.141011025    -2.850632036    -0.320492352     C.2   1  *****   -0.089198
    9   C9         0.688779026    -1.543795536    -0.181886228     C.2   1  *****    0.225536
   10   N10        1.356070192    -0.424924757    -0.356393589       N   1  *****   -0.468059
   11   C11        2.626620588    -0.524757682    -0.743735511     C.2   1  *****    0.330857
   12   C12        3.217915750    -1.777297984    -0.935205753     C.2   1  *****   -0.359324
   13   C13       -3.172161744     0.863428378     1.043946800     C.2   1  *****    0.419336
   14   C14        3.170240812     0.854111502    -1.051659045     C.2   1  *****    0.419462
   15   O15       -2.343561272     1.731000205     1.334604023       O   1  *****   -0.428114
   16   N16       -4.500778503     1.104021049     1.034254697     N.3   1  *****   -0.233832
   17   N17        4.499106764     1.093760200    -1.043568535     N.3   1  *****   -0.232747
   18   O18        2.342500920     1.720448843    -1.348278233       O   1  *****   -0.428154
   19   N19        1.657463721     1.154330909     2.316606249       N   1  *****    0.876063
   20   O20        0.428137473     0.829620122     2.238126741       O   1  *****   -0.582544
   21   O21        2.088659905     1.916104079     1.385669367       O   1  *****   -0.577967
   22   O22        2.385842983     0.740425331     3.199632467       O   1  *****   -0.427273
   23   N23        0.001136513     4.669643501    -0.016557446       N   1  *****    0.890298
   24   O24       -0.436384272     3.984623094     0.976434457       O   1  *****   -0.596708
   25   O25        0.437186708     3.977706258    -1.005390620       O   1  *****   -0.596637
   26   O26        0.002412934     5.877391704    -0.020175379       O   1  *****   -0.403191
   27   N27       -1.659739568     1.143691902    -2.327533117       N   1  *****    0.876091
   28   O28       -2.090511047     1.910636556    -1.400573866       O   1  *****   -0.577829
   29   O29       -0.430724917     0.818381290    -2.247046302       O   1  *****   -0.582423
   30   O30       -2.388300216     0.725825773    -3.208506888       O   1  *****   -0.427190
   31   C31       -0.001527362    -3.827187270     0.016256652     C.3   1  *****    0.402099
   32   C32        0.356375516    -4.688564582     1.238800516     C.3   1  *****   -0.694585
   33   C33       -0.358303326    -4.703768076    -1.195676432     C.3   1  *****   -0.707895
   34   Cl34      -3.247120690    -4.475998056     1.001596304      Cl   1  *****   -0.061746
   35   Cl35       3.244632096    -4.485026958    -0.961015976      Cl   1  *****   -0.062048
   36   C36       -4.925802932     2.456578367     1.398274404     C.3   1  *****   -0.565196
   37   C37       -5.410334986     0.309151119     0.266534526     C.2   1  *****    0.461367
   38   C38       -5.203898057     0.151057979    -1.104145532     C.2   1  *****   -0.261126
   39   C39       -6.095390966    -0.622976993    -1.840527293     C.2   1  *****   -0.098881
   40   C40       -7.192192912    -1.215235144    -1.222122679     C.2   1  *****   -0.148054
   41   C41       -7.404585409    -1.032838516     0.142618501     C.2   1  *****   -0.100933
   42   C42       -6.514807880    -0.270344506     0.890480418     C.2   1  *****   -0.283877
   43   C43        4.925225116     2.443354421    -1.417118680     C.3   1  *****   -0.564708
   44   C44        5.408605625     0.302836899    -0.271877328     C.2   1  *****    0.460159
   45   C45        5.202353330     0.151580237     1.099606629     C.2   1  *****   -0.261435
   46   C46        6.093536382    -0.619374127     1.839562079     C.2   1  *****   -0.099723
   47   C47        7.190013235    -1.215111055     1.223894538     C.2   1  *****   -0.148733
   48   C48        7.402421346    -1.039249838    -0.141699773     C.2   1  *****   -0.100030
   49   C49        6.512858512    -0.280049076    -0.893122302     C.2   1  *****   -0.284599
   50   Nd50      -0.001044334     1.815627938    -0.007250228      Nd   1  *****    1.843196
   51   H51       -4.253535416    -1.850617378     1.261350262       H   1  *****    0.156049
   52   H52        4.251243475    -1.862282813    -1.243972116       H   1  *****    0.156107
   53   H53       -0.491109560    -5.320617659     1.513836331       H   1  *****    0.199707
   54   H54        1.206895662    -5.334468059     1.008318723       H   1  *****    0.194780
   55   H55        0.617897994    -4.066595880     2.098928637       H   1  *****    0.183071
   56   H56       -0.619196549    -4.092565242    -2.063682363       H   1  *****    0.186765
   57   H57        0.489622720    -5.338962719    -1.461936196       H   1  *****    0.202202
   58   H58       -1.208855759    -5.347111095    -0.958199853       H   1  *****    0.197963
   59   H59       -4.803187390     3.136128695     0.548959104       H   1  *****    0.216818
   60   H60       -5.975120488     2.424103550     1.691480444       H   1  *****    0.196141
   61   H61       -4.310404171     2.814945630     2.221768950       H   1  *****    0.231702
   62   H62       -4.360605998     0.635034020    -1.589156968       H   1  *****    0.142948
   63   H63       -5.930601455    -0.751350021    -2.905204567       H   1  *****    0.145488
   64   H64       -7.886107484    -1.814002598    -1.803042281       H   1  *****    0.134517
   65   H65       -8.260915775    -1.489761462     0.627962612       H   1  *****    0.132900
   66   H66       -6.661411886    -0.130897928     1.957190441       H   1  *****    0.152994
   67   H67        4.310449510     2.795926876    -2.243559353       H   1  *****    0.231236
   68   H68        4.802465955     3.129232176    -0.572929758       H   1  *****    0.216967
   69   H69        5.974694785     2.408165234    -1.709488140       H   1  *****    0.196124
   70   H70        4.359473102     0.638430469     1.582445827       H   1  *****    0.143246
   71   H71        5.928831052    -0.742576684     2.904864447       H   1  *****    0.146071
   72   H72        7.883694865    -1.811443346     1.807594357       H   1  *****    0.134908
   73   H73        8.258572319    -1.498766471    -0.624907500       H   1  *****    0.132848
   74   H74        6.659402675    -0.145827555    -1.960506995       H   1  *****    0.153343


@<TRIPOS>BOND
    1      1      2    1
    2      1      6    2
    3      2      3    2
    4      3      4    1
    5      4      5    2
    6      5      6    1
    7      7      8    1
    8      7     12    2
    9      8      9    2
   10      9     10    1
   11     10     11    2
   12     11     12    1
   13      6      9    1
   14      4     13    1
   15     11     14    1
   16     13     15    2
   17     13     16    1
   18     14     17    1
   19     14     18    2
   20     19     20    2
   21     19     21    2
   22     19     22    1
   23     23     24    2
   24     23     25    2
   25     23     26    1
   26     27     28    2
   27     27     29    2
   28     27     30    1
   29     31     32    1
   30     31     33    1
   31      1     31    1
   32      8     31    1
   33      2     34    1
   34      7     35    1
   35     16     36    1
   36     37     38    2
   37     37     42    1
   38     38     39    1
   39     39     40    2
   40     40     41    1
   41     41     42    2
   42     16     37    1
   43     17     43    1
   44     44     45    2
   45     44     49    1
   46     45     46    1
   47     46     47    2
   48     47     48    1
   49     48     49    2
   50     17     44    1
   51      5     50    1
   52     10     50    1
   53     29     50    1
   54     15     50    1
   55     25     50    1
   56     28     50    1
   57     24     50    1
   58     21     50    1
   59     20     50    1
   60     18     50    1
   61      3     51    1
   62     12     52    1
   63     32     53    1
   64     32     54    1
   65     32     55    1
   66     33     56    1
   67     33     57    1
   68     33     58    1
   69     36     59    1
   70     36     60    1
   71     36     61    1
   72     38     62    1
   73     39     63    1
   74     40     64    1
   75     41     65    1
   76     42     66    1
   77     43     67    1
   78     43     68    1
   79     43     69    1
   80     45     70    1
   81     46     71    1
   82     47     72    1
   83     48     73    1
   84     49     74    1
#
#	File Created by: Spartan '14 Export
#

@<TRIPOS>MOLECULE
*****
74 84
SMALL
USER_CHARGES


@<TRIPOS>ATOM
    1   C1        -1.130997889    -3.024509890     0.351445591     C.2   1  *****   -0.355084
    2   C2        -2.446672220    -3.116898505     0.771886336     C.2   1  *****    0.527093
    3   C3        -3.206606104    -1.963016116     0.997494090     C.2   1  *****   -0.509276
    4   C4        -2.628337764    -0.708200325     0.780515025     C.2   1  *****    0.363371
    5   N5        -1.365963943    -0.601623606     0.365355689       N   1  *****   -0.504940
    6   C6        -0.692638666    -1.717383857     0.190123785     C.2   1  *****    0.299695
    7   C7         2.451062570    -3.118461116    -0.739568464     C.2   1  *****    0.519281
    8   C8         1.131544100    -3.025198695    -0.331735492     C.2   1  *****   -0.335824
    9   C9         0.685343692    -1.717575030    -0.198550934     C.2   1  *****    0.270444
   10   N10        1.355492437    -0.602036542    -0.386442886       N   1  *****   -0.488234
   11   C11        2.623053376    -0.709328635    -0.785424832     C.2   1  *****    0.353177
   12   C12        3.208107879    -1.965132729    -0.977400023     C.2   1  *****   -0.502737
   13   C13       -3.173282633     0.669383394     1.090695342     C.2   1  *****    0.435111
   14   C14        3.168278302     0.667616880    -1.099478807     C.2   1  *****    0.434245
   15   O15       -2.346223565     1.540599192     1.373076292       O   1  *****   -0.431274
   16   N16       -4.504151548     0.901484693     1.099718795     N.3   1  *****   -0.239627
   17   N17        4.499197260     0.900199517    -1.110212937     N.3   1  *****   -0.232569
   18   O18        2.341896018     1.539143369    -1.382889675       O   1  *****   -0.432472
   19   N19        1.686692205     0.959567299     2.291714187       N   1  *****    0.876873
   20   O20        0.456594830     0.633779167     2.227581765       O   1  *****   -0.584480
   21   O21        2.104812680     1.727886213     1.360613392       O   1  *****   -0.578435
   22   O22        2.427031516     0.539985021     3.162242371       O   1  *****   -0.427926
   23   N23        0.004391301     4.481804274     0.010984075       N   1  *****    0.884501
   24   O24       -0.421745905     3.788687839     1.003193968       O   1  *****   -0.593497
   25   O25        0.426782895     3.798047418    -0.989600888       O   1  *****   -0.593314
   26   O26        0.007865039     5.689537579     0.018009769       O   1  *****   -0.401773
   27   N27       -1.694223014     0.979921217    -2.306606605       N   1  *****    0.874985
   28   O28       -2.111172045     1.740059159    -1.368017386       O   1  *****   -0.578356
   29   O29       -0.463660620     0.655173672    -2.247906290       O   1  *****   -0.583554
   30   O30       -2.436079039     0.567146625    -3.178997889       O   1  *****   -0.426833
   31   C31        0.003293635    -4.004583475     0.020482655     C.3   1  *****    0.700577
   32   C32        0.371096752    -4.862082147     1.241904753     C.3   1  *****   -0.790290
   33   C33       -0.357540020    -4.895012343    -1.179003470     C.3   1  *****   -0.798392
   34   F34       -3.011130458    -4.308279667     0.983706612       F   1  *****   -0.185317
   35   F35        3.023372125    -4.310697567    -0.923871963       F   1  *****   -0.184913
   36   C36       -4.932662793     2.249541319     1.475571839     C.3   1  *****   -0.564184
   37   C37       -5.416819959     0.106910987     0.335601920     C.2   1  *****    0.464732
   38   C38       -5.224427986    -0.039324894    -1.038466349     C.2   1  *****   -0.264207
   39   C39       -6.119478474    -0.812518137    -1.771445237     C.2   1  *****   -0.096484
   40   C40       -7.206371625    -1.415806893    -1.146149257     C.2   1  *****   -0.151700
   41   C41       -7.405069631    -1.245311113     0.222204536     C.2   1  *****   -0.084970
   42   C42       -6.511347411    -0.483802397     0.966476726     C.2   1  *****   -0.304506
   43   C43        4.926196063     2.247381940    -1.491110610     C.3   1  *****   -0.565156
   44   C44        5.414371036     0.107831006    -0.347080829     C.2   1  *****    0.458423
   45   C45        5.223087475    -0.040121604     1.026959328     C.2   1  *****   -0.254809
   46   C46        6.120032596    -0.812288207     1.758629051     C.2   1  *****   -0.101320
   47   C47        7.207765242    -1.412884516     1.132169340     C.2   1  *****   -0.150418
   48   C48        7.405386834    -1.240631759    -0.236118290     C.2   1  *****   -0.083835
   49   C49        6.509737934    -0.480180209    -0.979136852     C.2   1  *****   -0.306945
   50   Nd50      -0.002799585     1.628750841    -0.006174978      Nd   1  *****    1.843463
   51   H51       -4.231310264    -2.068659875     1.328574409       H   1  *****    0.197777
   52   H52        4.236838664    -2.072318504    -1.295145074       H   1  *****    0.197000
   53   H53       -0.480022038    -5.485577883     1.528482276       H   1  *****    0.219413
   54   H54        1.214838580    -5.515077562     1.002691198       H   1  *****    0.213960
   55   H55        0.647168398    -4.239314157     2.096747048       H   1  *****    0.202576
   56   H56       -0.635821762    -4.295755650    -2.049785197       H   1  *****    0.204645
   57   H57        0.497958213    -5.520289221    -1.448058293       H   1  *****    0.220248
   58   H58       -1.197743300    -5.547121484    -0.925187818       H   1  *****    0.216322
   59   H59       -4.822266693     2.935136340     0.629416483       H   1  *****    0.216276
   60   H60       -5.978732382     2.209895149     1.779460588       H   1  *****    0.197405
   61   H61       -4.310804183     2.606263201     2.294953909       H   1  *****    0.229750
   62   H62       -4.388841918     0.452956584    -1.528577150       H   1  *****    0.143623
   63   H63       -5.965566734    -0.931323195    -2.838885057       H   1  *****    0.145886
   64   H64       -7.903462902    -2.013446846    -1.724462256       H   1  *****    0.134602
   65   H65       -8.254030812    -1.710233935     0.712951157       H   1  *****    0.130280
   66   H66       -6.647701791    -0.352670465     2.035633664       H   1  *****    0.157933
   67   H67        4.306390582     2.599026141    -2.314236684       H   1  *****    0.229164
   68   H68        4.811588630     2.936909622    -0.648722126       H   1  *****    0.216251
   69   H69        5.973323970     2.208303221    -1.791306967       H   1  *****    0.197588
   70   H70        4.386452193     0.449415848     1.517998035       H   1  *****    0.140770
   71   H71        5.966877765    -0.932519813     2.826018158       H   1  *****    0.146711
   72   H72        7.906273490    -2.009802285     1.709513068       H   1  *****    0.134499
   73   H73        8.254930472    -1.703447421    -0.727837639       H   1  *****    0.130250
   74   H74        6.644991861    -0.348269687    -2.048323066       H   1  *****    0.158752


@<TRIPOS>BOND
    1      1      2    1
    2      1      6    2
    3      2      3    2
    4      3      4    1
    5      4      5    2
    6      5      6    1
    7      7      8    1
    8      7     12    2
    9      8      9    2
   10      9     10    1
   11     10     11    2
   12     11     12    1
   13      6      9    1
   14      4     13    1
   15     11     14    1
   16     13     15    2
   17     13     16    1
   18     14     17    1
   19     14     18    2
   20     19     20    2
   21     19     21    2
   22     19     22    1
   23     23     24    2
   24     23     25    2
   25     23     26    1
   26     27     28    2
   27     27     29    2
   28     27     30    1
   29     31     32    1
   30     31     33    1
   31      1     31    1
   32      8     31    1
   33      2     34    1
   34      7     35    1
   35     16     36    1
   36     37     38    2
   37     37     42    1
   38     38     39    1
   39     39     40    2
   40     40     41    1
   41     41     42    2
   42     16     37    1
   43     17     43    1
   44     44     45    2
   45     44     49    1
   46     45     46    1
   47     46     47    2
   48     47     48    1
   49     48     49    2
   50     17     44    1
   51      5     50    1
   52     10     50    1
   53     29     50    1
   54     15     50    1
   55     25     50    1
   56     28     50    1
   57     24     50    1
   58     21     50    1
   59     20     50    1
   60     18     50    1
   61      3     51    1
   62     12     52    1
   63     32     53    1
   64     32     54    1
   65     32     55    1
   66     33     56    1
   67     33     57    1
   68     33     58    1
   69     36     59    1
   70     36     60    1
   71     36     61    1
   72     38     62    1
   73     39     63    1
   74     40     64    1
   75     41     65    1
   76     42     66    1
   77     43     67    1
   78     43     68    1
   79     43     69    1
   80     45     70    1
   81     46     71    1
   82     47     72    1
   83     48     73    1
   84     49     74    1
#
#	File Created by: Spartan '14 Export
#

@<TRIPOS>MOLECULE
*****
88 98
SMALL
USER_CHARGES


@<TRIPOS>ATOM
    1   C1        -1.151258686    -2.614275467     0.253793408     C.2   1  *****   -0.220864
    2   C2        -2.479165769    -2.705308128     0.687590828     C.2   1  *****    0.284659
    3   C3        -3.184111529    -1.502834162     0.880133073     C.2   1  *****   -0.401291
    4   C4        -2.581301262    -0.265366095     0.639011224     C.2   1  *****    0.356620
    5   N5        -1.320927106    -0.189306239     0.216685223       N   1  *****   -0.519862
    6   C6        -0.677597013    -1.326594743     0.056247636     C.2   1  *****    0.256470
    7   C7         2.536766130    -2.795168297    -0.641331849     C.2   1  *****    0.370184
    8   C8         1.167612079    -2.664898767    -0.374872167     C.2   1  *****   -0.238083
    9   C9         0.708269216    -1.353801071    -0.293651795     C.2   1  *****    0.283781
   10   N10        1.392041801    -0.237572943    -0.429744968       N   1  *****   -0.482818
   11   C11        2.685861284    -0.348201849    -0.723158782     C.2   1  *****    0.324091
   12   C12        3.273870943    -1.609223636    -0.838750657     C.2   1  *****   -0.439853
   13   C13       -3.090380391     1.118027447     0.961841593     C.2   1  *****    0.433502
   14   C14        3.265824937     1.023842473    -0.984712094     C.2   1  *****    0.436041
   15   O15       -2.246200551     1.960020214     1.288429261       O   1  *****   -0.442568
   16   N16       -4.412448802     1.396227110     0.937733944     N.3   1  *****   -0.221653
   17   N17        4.601872399     1.238660153    -0.938691629     N.3   1  *****   -0.228699
   18   O18        2.471222983     1.918422811    -1.286881610       O   1  *****   -0.431652
   19   N19        1.683784298     1.203412170     2.331960389       N   1  *****    0.877810
   20   O20        0.454208496     0.902136133     2.207439008       O   1  *****   -0.576335
   21   O21        2.154160698     1.994661450     1.446486726       O   1  *****   -0.577995
   22   O22        2.381896127     0.742330724     3.218457412       O   1  *****   -0.437516
   23   N23        0.200855535     4.862877610     0.183181006       N   1  *****    0.883339
   24   O24        0.593021399     4.225211912    -0.858756717       O   1  *****   -0.597495
   25   O25       -0.247040927     4.130642400     1.135058627       O   1  *****   -0.596003
   26   O26        0.250166108     6.068353775     0.260352211       O   1  *****   -0.406461
   27   N27       -1.527399742     1.562610052    -2.404464567       N   1  *****    0.875160
   28   O28       -0.302296790     1.224112237    -2.330942220       O   1  *****   -0.583687
   29   O29       -1.971907838     2.249635772    -1.422583338       O   1  *****   -0.576880
   30   O30       -2.242177938     1.229055399    -3.332058495       O   1  *****   -0.428233
   31   C31       -0.024850166    -3.613578280    -0.095809636     C.3   1  *****    0.536788
   32   C32        0.283490664    -4.581758795     1.052508169     C.3   1  *****   -0.833235
   33   C33       -0.413861262    -4.380652889    -1.375783162     C.3   1  *****   -0.754004
   34   C34       -3.153763191    -4.017060818     0.988735061     C.3   1  *****   -0.037947
   35   O35       -4.492255193    -3.804333701     1.334197261     O.3   1  *****   -0.179647
   36   C36       -5.168592791    -4.995867839     1.649827997     C.3   1  *****   -0.439925
   37   C37        3.318837345    -4.081774902    -0.629915531     C.3   1  *****   -0.264923
   38   O38        2.608510547    -5.140097269    -1.219721237     O.3   1  *****   -0.109905
   39   C39        3.347783592    -6.340275371    -1.226152630     C.3   1  *****   -0.467079
   40   C40       -4.803382148     2.750161915     1.331423894     C.3   1  *****   -0.575540
   41   C41       -5.325641672     0.661770670     0.115655947     C.2   1  *****    0.487135
   42   C42       -5.085177155     0.546779089    -1.253912353     C.2   1  *****   -0.286146
   43   C43       -5.990967433    -0.149998304    -2.047374984     C.2   1  *****   -0.087901
   44   C44       -7.136166062    -0.706726821    -1.486522319     C.2   1  *****   -0.153372
   45   C45       -7.380484149    -0.568304438    -0.122250069     C.2   1  *****   -0.093617
   46   C46       -6.476205967     0.114692162     0.682213426     C.2   1  *****   -0.297691
   47   C47        5.055576073     2.587704075    -1.280647556     C.3   1  *****   -0.571663
   48   C48        5.477424982     0.436605195    -0.141611066     C.2   1  *****    0.459083
   49   C49        5.217414717     0.265963296     1.218532538     C.2   1  *****   -0.242988
   50   C50        6.079144639    -0.513980098     1.983412546     C.2   1  *****   -0.104538
   51   C51        7.201988252    -1.098937976     1.405656146     C.2   1  *****   -0.155104
   52   C52        7.468883344    -0.903669808     0.052241361     C.2   1  *****   -0.104902
   53   C53        6.607579453    -0.137032588    -0.724486380     C.2   1  *****   -0.294309
   54   Nd54       0.088584342     2.011228818    -0.004598951      Nd   1  *****    1.849837
   55   H55       -4.206028199    -1.559975709     1.226781702       H   1  *****    0.133856
   56   H56        4.330047376    -1.687196828    -1.065146721       H   1  *****    0.144985
   57   H57       -0.580891347    -5.217377247     1.263962135       H   1  *****    0.194942
   58   H58        1.111593643    -5.237370733     0.773614801       H   1  *****    0.258493
   59   H59        0.546794268    -4.045162968     1.968315342       H   1  *****    0.208563
   60   H60       -1.278323352    -5.023942820    -1.185361174       H   1  *****    0.192795
   61   H61       -0.673343153    -3.689303246    -2.181955017       H   1  *****    0.196562
   62   H62        0.420437634    -5.001346436    -1.701620401       H   1  *****    0.204459
   63   H63       -2.619973704    -4.522448464     1.812020590       H   1  *****    0.107006
   64   H64       -3.080209336    -4.684231041     0.113488819       H   1  *****    0.093605
   65   H65       -4.714781478    -5.501968302     2.514931194       H   1  *****    0.155530
   66   H66       -6.196577704    -4.725015659     1.894423542       H   1  *****    0.196914
   67   H67       -5.174659956    -5.695382828     0.800604572       H   1  *****    0.155796
   68   H68        3.568529595    -4.331096516     0.416678010       H   1  *****    0.132017
   69   H69        4.276405897    -3.927640270    -1.150433600       H   1  *****    0.157771
   70   H70        3.615246785    -6.655858198    -0.207019102       H   1  *****    0.163653
   71   H71        2.717122230    -7.103632307    -1.683826067       H   1  *****    0.195496
   72   H72        4.271480238    -6.238553250    -1.813482855       H   1  *****    0.171048
   73   H73       -5.862534347     2.745424406     1.589130546       H   1  *****    0.192303
   74   H74       -4.204373678     3.060777978     2.185909209       H   1  *****    0.231096
   75   H75       -4.629010276     3.452673086     0.510057426       H   1  *****    0.215816
   76   H76       -4.207768045     1.011689194    -1.694597273       H   1  *****    0.144468
   77   H77       -5.800285034    -0.242687852    -3.111507108       H   1  *****    0.142207
   78   H78       -7.842823251    -1.242784379    -2.111965557       H   1  *****    0.130726
   79   H79       -8.274523411    -0.997692977     0.318512798       H   1  *****    0.128871
   80   H80       -6.648455509     0.218922185     1.749017596       H   1  *****    0.155087
   81   H81        4.904002635     3.268174765    -0.436598579       H   1  *****    0.215974
   82   H82        6.116019384     2.545377455    -1.529681852       H   1  *****    0.196660
   83   H83        4.479320430     2.954434229    -2.128421659       H   1  *****    0.229378
   84   H84        4.355100721     0.744353096     1.674285856       H   1  *****    0.136942
   85   H85        5.871108054    -0.650061209     3.039621828       H   1  *****    0.145557
   86   H86        7.874895031    -1.699018124     2.009880367       H   1  *****    0.132755
   87   H87        8.347194468    -1.351840277    -0.401429656       H   1  *****    0.131714
   88   H88        6.796693270     0.011635918    -1.783190818       H   1  *****    0.154841


@<TRIPOS>BOND
    1      1      2    1
    2      1      6    2
    3      2      3    2
    4      3      4    1
    5      4      5    2
    6      5      6    1
    7      7      8    1
    8      7     12    2
    9      8      9    2
   10      9     10    1
   11     10     11    2
   12     11     12    1
   13      6      9    1
   14      4     13    1
   15     11     14    1
   16     13     15    2
   17     13     16    1
   18     14     17    1
   19     14     18    2
   20     19     20    2
   21     19     21    2
   22     19     22    1
   23     23     24    2
   24     23     25    2
   25     23     26    1
   26     27     28    2
   27     27     29    2
   28     27     30    1
   29     31     32    1
   30     31     33    1
   31      1     31    1
   32      8     31    1
   33     34     35    1
   34     35     36    1
   35      2     34    1
   36     37     38    1
   37     38     39    1
   38      7     37    1
   39     16     40    1
   40     41     42    2
   41     41     46    1
   42     42     43    1
   43     43     44    2
   44     44     45    1
   45     45     46    2
   46     16     41    1
   47     17     47    1
   48     48     49    2
   49     48     53    1
   50     49     50    1
   51     50     51    2
   52     51     52    1
   53     52     53    2
   54     17     48    1
   55      5     54    1
   56     10     54    1
   57     29     54    1
   58     15     54    1
   59     25     54    1
   60     28     54    1
   61     24     54    1
   62     21     54    1
   63     20     54    1
   64     18     54    1
   65      3     55    1
   66     12     56    1
   67     32     57    1
   68     32     58    1
   69     32     59    1
   70     33     60    1
   71     33     61    1
   72     33     62    1
   73     34     63    1
   74     34     64    1
   75     36     65    1
   76     36     66    1
   77     36     67    1
   78     37     68    1
   79     37     69    1
   80     39     70    1
   81     39     71    1
   82     39     72    1
   83     40     73    1
   84     40     74    1
   85     40     75    1
   86     42     76    1
   87     43     77    1
   88     44     78    1
   89     45     79    1
   90     46     80    1
   91     47     81    1
   92     47     82    1
   93     47     83    1
   94     49     84    1
   95     50     85    1
   96     51     86    1
   97     52     87    1
   98     53     88    1
#
#	File Created by: Spartan '14 Export
#

@<TRIPOS>MOLECULE
*****
78 88
SMALL
USER_CHARGES


@<TRIPOS>ATOM
    1   C1        -1.156804231    -2.759210294     0.318051906     C.2   1  *****   -0.142679
    2   C2        -2.495894268    -2.802594775     0.715680772     C.2   1  *****    0.120031
    3   C3        -3.231330040    -1.627076008     0.906496331     C.2   1  *****   -0.363583
    4   C4        -2.627322655    -0.387348520     0.692201923     C.2   1  *****    0.380614
    5   N5        -1.352236210    -0.322569968     0.320134540       N   1  *****   -0.470983
    6   C6        -0.694066111    -1.452140849     0.170940107     C.2   1  *****    0.259016
    7   C7         2.503063013    -2.798743422    -0.701745053     C.2   1  *****    0.112162
    8   C8         1.162702883    -2.757387192    -0.308087784     C.2   1  *****   -0.126310
    9   C9         0.694454484    -1.450949492    -0.173160913     C.2   1  *****    0.239189
   10   N10        1.348811224    -0.320180941    -0.329638865       N   1  *****   -0.462751
   11   C11        2.625624794    -0.382831083    -0.696181514     C.2   1  *****    0.378455
   12   C12        3.234765786    -1.621958504    -0.899304226     C.2   1  *****   -0.359526
   13   C13       -3.158130195     1.000723351     0.973757443     C.2   1  *****    0.388426
   14   C14        3.152805000     1.005822566    -0.982229902     C.2   1  *****    0.383209
   15   O15       -2.321805069     1.858017175     1.277147754       O   1  *****   -0.427018
   16   N16       -4.480902072     1.252879387     0.936383012     N.3   1  *****   -0.204590
   17   N17        4.474954503     1.261766008    -0.947633529     N.3   1  *****   -0.200851
   18   O18        2.314145049     1.860662056    -1.286430841       O   1  *****   -0.424909
   19   N19        1.601112416     1.236928251     2.348757566       N   1  *****    0.877552
   20   O20        0.374596458     0.912036352     2.232984148       O   1  *****   -0.582394
   21   O21        2.055023132     2.010509465     1.437940715       O   1  *****   -0.577657
   22   O22        2.306315081     0.813472498     3.245038743       O   1  *****   -0.424291
   23   N23       -0.001575114     4.799810358     0.001994624       N   1  *****    0.888667
   24   O24        0.437700909     4.112523157    -0.989258626       O   1  *****   -0.596491
   25   O25       -0.441937219     4.108041529     0.989557764       O   1  *****   -0.595749
   26   O26       -0.000588670     6.006850518     0.005108819       O   1  *****   -0.398571
   27   N27       -1.606446470     1.239324791    -2.359019822       N   1  *****    0.879125
   28   O28       -0.379482575     0.915968158    -2.244585291       O   1  *****   -0.582321
   29   O29       -2.061032694     2.010253972    -1.446171334       O   1  *****   -0.578323
   30   O30       -2.311647259     0.816636081    -3.255654882       O   1  *****   -0.425018
   31   C31        0.004751253    -3.739697742     0.008826615     C.3   1  *****    0.565723
   32   C32        0.331817450    -4.586764716     1.252989870     C.3   1  *****   -0.860829
   33   C33       -0.319276453    -4.597681593    -1.228635468     C.3   1  *****   -0.870238
   34   N34       -3.224813066    -4.060341723     0.977477747       N   1  *****    0.696988
   35   O35       -4.343560438    -3.974333410     1.459946738     O.2   1  *****   -0.365622
   36   O36       -2.663401058    -5.110995703     0.694841965     O.2   1  *****   -0.395919
   37   N37        3.237641430    -4.055844461    -0.951011005       N   1  *****    0.697677
   38   O38        4.360435303    -3.969260885    -1.423869588     O.2   1  *****   -0.365590
   39   O39        2.676580640    -5.106621655    -0.668128963     O.2   1  *****   -0.396292
   40   C40       -4.906427013     2.609693555     1.284085152     C.3   1  *****   -0.552727
   41   C41       -5.384499712     0.449110386     0.168998742     C.2   1  *****    0.434959
   42   C42       -5.163271054     0.277126678    -1.197781057     C.2   1  *****   -0.261506
   43   C43       -6.046883479    -0.505507618    -1.934737833     C.2   1  *****   -0.097744
   44   C44       -7.148412889    -1.092781088    -1.320146360     C.2   1  *****   -0.143980
   45   C45       -7.374309258    -0.896825833     0.040650823     C.2   1  *****   -0.084204
   46   C46       -6.493854464    -0.124645073     0.789233727     C.2   1  *****   -0.283173
   47   C47        4.895561709     2.618896506    -1.300140170     C.3   1  *****   -0.557048
   48   C48        5.382646424     0.462685747    -0.180368208     C.2   1  *****    0.436594
   49   C49        5.163621256     0.291132523     1.186815808     C.2   1  *****   -0.261502
   50   C50        6.051097493    -0.487458153     1.923417470     C.2   1  *****   -0.097945
   51   C51        7.154373854    -1.070852636     1.308213912     C.2   1  *****   -0.143585
   52   C52        7.378038972    -0.875134016    -0.052962314     C.2   1  *****   -0.083960
   53   C53        6.493642545    -0.107227779    -0.801287003     C.2   1  *****   -0.285752
   54   Nd54      -0.002942852     1.947703067    -0.004802299      Nd   1  *****    1.835531
   55   H55       -4.262611039    -1.712500045     1.217553493       H   1  *****    0.162210
   56   H56        4.267405787    -1.706065490    -1.206155010       H   1  *****    0.161775
   57   H57       -0.528262135    -5.204792353     1.509712213       H   1  *****    0.260253
   58   H58        1.182747354    -5.234964885     1.048053913       H   1  *****    0.262434
   59   H59        0.574122904    -3.947377122     2.106966101       H   1  *****    0.198103
   60   H60       -0.563485855    -3.965868387    -2.087678128       H   1  *****    0.200414
   61   H61        0.542732843    -5.214967993    -1.480272841       H   1  *****    0.262327
   62   H62       -1.168070856    -5.247127174    -1.018995721       H   1  *****    0.264999
   63   H63       -4.785801102     3.276407610     0.424508093       H   1  *****    0.214910
   64   H64       -5.955427807     2.580102831     1.578564937       H   1  *****    0.194138
   65   H65       -4.290160204     2.978931850     2.101976382       H   1  *****    0.229409
   66   H66       -4.316418328     0.758247319    -1.679243229       H   1  *****    0.141960
   67   H67       -5.872083110    -0.644792376    -2.996420687       H   1  *****    0.146194
   68   H68       -7.835284822    -1.699662663    -1.900861084       H   1  *****    0.135352
   69   H69       -8.232739231    -1.352610503     0.522848032       H   1  *****    0.133136
   70   H70       -6.650597256     0.023843797     1.853168161       H   1  *****    0.155879
   71   H71        4.279833494     2.982012748    -2.121179688       H   1  *****    0.230046
   72   H72        4.769919116     3.288962343    -0.443907487       H   1  *****    0.215957
   73   H73        5.945392916     2.592322020    -1.591838521       H   1  *****    0.195053
   74   H74        4.315498875     0.769459534     1.668841938       H   1  *****    0.141790
   75   H75        5.878050560    -0.626498067     2.985426704       H   1  *****    0.146094
   76   H76        7.844274372    -1.674466228     1.888731439       H   1  *****    0.135297
   77   H77        8.237798576    -1.327831120    -0.535693504       H   1  *****    0.133362
   78   H78        6.648606689     0.040737095    -1.865547489       H   1  *****    0.156620


@<TRIPOS>BOND
    1      1      2    1
    2      1      6    2
    3      2      3    2
    4      3      4    1
    5      4      5    2
    6      5      6    1
    7      7      8    1
    8      7     12    2
    9      8      9    2
   10      9     10    1
   11     10     11    2
   12     11     12    1
   13      6      9    1
   14      4     13    1
   15     11     14    1
   16     13     15    2
   17     13     16    1
   18     14     17    1
   19     14     18    2
   20     19     20    2
   21     19     21    2
   22     19     22    1
   23     23     24    2
   24     23     25    2
   25     23     26    1
   26     27     28    2
   27     27     29    2
   28     27     30    1
   29     31     32    1
   30     31     33    1
   31      1     31    1
   32      8     31    1
   33     34     35    2
   34     34     36    2
   35      2     34    1
   36     37     38    2
   37     37     39    2
   38      7     37    1
   39     16     40    1
   40     41     42    2
   41     41     46    1
   42     42     43    1
   43     43     44    2
   44     44     45    1
   45     45     46    2
   46     16     41    1
   47     17     47    1
   48     48     49    2
   49     48     53    1
   50     49     50    1
   51     50     51    2
   52     51     52    1
   53     52     53    2
   54     17     48    1
   55      5     54    1
   56     10     54    1
   57     29     54    1
   58     15     54    1
   59     25     54    1
   60     28     54    1
   61     24     54    1
   62     21     54    1
   63     20     54    1
   64     18     54    1
   65      3     55    1
   66     12     56    1
   67     32     57    1
   68     32     58    1
   69     32     59    1
   70     33     60    1
   71     33     61    1
   72     33     62    1
   73     40     63    1
   74     40     64    1
   75     40     65    1
   76     42     66    1
   77     43     67    1
   78     44     68    1
   79     45     69    1
   80     46     70    1
   81     47     71    1
   82     47     72    1
   83     47     73    1
   84     49     74    1
   85     50     75    1
   86     51     76    1
   87     52     77    1
   88     53     78    1
#
#	File Created by: Spartan '14 Export
#

@<TRIPOS>MOLECULE
*****
67 77
SMALL
USER_CHARGES


@<TRIPOS>ATOM
    1   C1        -1.149619758    -3.321657505     0.383417960     C.2   1  *****   -0.166714
    2   C2        -2.459737759    -3.455007680     0.819065934     C.2   1  *****    0.045535
    3   C3        -3.199575841    -2.280394928     1.042036547     C.2   1  *****   -0.304942
    4   C4        -2.625710514    -1.023182941     0.813305539     C.2   1  *****    0.347779
    5   N5        -1.363798588    -0.912054153     0.382887897       N   1  *****   -0.463164
    6   C6        -0.693273394    -2.023015683     0.206936106     C.2   1  *****    0.265521
    7   C7         2.463820604    -3.460913424    -0.775304102     C.2   1  *****    0.049536
    8   C8         1.150567319    -3.324357102    -0.350425251     C.2   1  *****   -0.169317
    9   C9         0.689334906    -2.024265714    -0.198705231     C.2   1  *****    0.259306
   10   N10        1.357983369    -0.914352707    -0.388074278       N   1  *****   -0.457792
   11   C11        2.624234835    -1.028687158    -0.804753533     C.2   1  *****    0.357718
   12   C12        3.202414530    -2.287948991    -1.010525565     C.2   1  *****   -0.310555
   13   C13       -3.162297425     0.357906688     1.125514493     C.2   1  *****    0.390159
   14   C14        3.162901819     0.349978433    -1.125185813     C.2   1  *****    0.376240
   15   O15       -2.327958792     1.224646418     1.401908783       O   1  *****   -0.415418
   16   N16       -4.491110992     0.597355220     1.143545231     N.3   1  *****   -0.227320
   17   N17        4.492273979     0.587739562    -1.144133063     N.3   1  *****   -0.219926
   18   O18        2.330644895     1.216502600    -1.407735792       O   1  *****   -0.413623
   19   N19       -1.707987713     0.663581461    -2.286119347       N   1  *****    0.868817
   20   O20       -0.477908683     0.334085780    -2.228871742       O   1  *****   -0.583797
   21   O21       -2.119164698     1.427983465    -1.347829437       O   1  *****   -0.572193
   22   O22       -2.452845275     0.252430586    -3.155554909       O   1  *****   -0.420551
   23   N23        0.002075159     4.177977939    -0.008190550       N   1  *****    0.886361
   24   O24        0.435009669     3.486992948    -0.999507169       O   1  *****   -0.593271
   25   O25       -0.434190826     3.490821969     0.984444347       O   1  *****   -0.593472
   26   O26        0.004854814     5.385233143    -0.009254169       O   1  *****   -0.400312
   27   N27        1.702980744     0.662412975     2.279636284       N   1  *****    0.867241
   28   O28        0.473810284     0.329690744     2.220402191       O   1  *****   -0.583838
   29   O29        2.113358605     1.429051152     1.343020547       O   1  *****   -0.571473
   30   O30        2.447892740     0.251269519     3.149103357       O   1  *****   -0.420177
   31   C31        0.001753524    -4.248385170     0.023920321     C.2   1  *****    0.455868
   32   O32        0.003605310    -5.455268289     0.034311038     O.2   1  *****   -0.382929
   33   H33       -2.908010235    -4.427108964     0.995624857       H   1  *****    0.137565
   34   H34        2.916373619    -4.434347320    -0.932540885       H   1  *****    0.136839
   35   C35       -4.908281623     1.947604752     1.525298946     C.3   1  *****   -0.546069
   36   C36       -5.413926927    -0.192758492     0.387222412     C.2   1  *****    0.463819
   37   C37       -5.227277493    -0.348783103    -0.986646521     C.2   1  *****   -0.272505
   38   C38       -6.133253073    -1.115792526    -1.712686751     C.2   1  *****   -0.096085
   39   C39       -7.225471279    -1.702268866    -1.080897167     C.2   1  *****   -0.148891
   40   C40       -7.418468077    -1.521392153     0.287106412     C.2   1  *****   -0.088371
   41   C41       -6.513723145    -0.766722878     1.024656239     C.2   1  *****   -0.297175
   42   C42        4.910307313     1.934617069    -1.536735186     C.3   1  *****   -0.549701
   43   C43        5.414866701    -0.197513129    -0.382699326     C.2   1  *****    0.462487
   44   C44        5.225682434    -0.349028129     0.991360940     C.2   1  *****   -0.272600
   45   C45        6.131171775    -1.112169434     1.722062160     C.2   1  *****   -0.096512
   46   C46        7.225492063    -1.699403300     1.094697667     C.2   1  *****   -0.149382
   47   C47        7.421043941    -1.523110970    -0.273546785     C.2   1  *****   -0.085485
   48   C48        6.516808401    -0.772354496    -1.015697383     C.2   1  *****   -0.301409
   49   Nd49      -0.002268607     1.328046157    -0.003919518      Nd   1  *****    1.827866
   50   H50       -4.222349630    -2.350429951     1.389043941       H   1  *****    0.142103
   51   H51        4.228422156    -2.361064992    -1.347147974       H   1  *****    0.143264
   52   H52       -4.786729903     2.636405044     0.683338335       H   1  *****    0.213154
   53   H53       -5.956155565     1.916159977     1.823327547       H   1  *****    0.192466
   54   H54       -4.287439831     2.294223187     2.349823523       H   1  *****    0.224612
   55   H55       -4.390197289     0.134621167    -1.482891828       H   1  *****    0.145728
   56   H56       -5.984281189    -1.241799596    -2.779957908       H   1  *****    0.146986
   57   H57       -7.931659740    -2.294138642    -1.654032108       H   1  *****    0.134419
   58   H58       -8.272125415    -1.972430431     0.782597385       H   1  *****    0.130806
   59   H59       -6.645896505    -0.627796580     2.093325104       H   1  *****    0.155253
   60   H60        4.293395869     2.273007585    -2.367644398       H   1  *****    0.225606
   61   H61        4.784003688     2.631635756    -0.702249727       H   1  *****    0.214692
   62   H62        5.959643992     1.901011528    -1.829190975       H   1  *****    0.193027
   63   H63        4.386728862     0.134437319     1.484300505       H   1  *****    0.145731
   64   H64        5.980027836    -1.234624389     2.789437942       H   1  *****    0.147336
   65   H65        7.931241568    -2.288326247     1.671384594       H   1  *****    0.134272
   66   H66        8.276282304    -1.974831110    -0.765691809       H   1  *****    0.130522
   67   H67        6.650876071    -0.637463420    -2.084642707       H   1  *****    0.156331


@<TRIPOS>BOND
    1      1      2    1
    2      1      6    2
    3      2      3    2
    4      3      4    1
    5      4      5    2
    6      5      6    1
    7      7      8    1
    8      7     12    2
    9      8      9    2
   10      9     10    1
   11     10     11    2
   12     11     12    1
   13      6      9    1
   14      4     13    1
   15     11     14    1
   16     13     15    2
   17     13     16    1
   18     14     17    1
   19     14     18    2
   20     19     20    2
   21     19     21    2
   22     19     22    1
   23     23     24    2
   24     23     25    2
   25     23     26    1
   26     27     28    2
   27     27     29    2
   28     27     30    1
   29     31     32    2
   30      1     31    1
   31      8     31    1
   32      2     33    1
   33      7     34    1
   34     16     35    1
   35     36     37    2
   36     36     41    1
   37     37     38    1
   38     38     39    2
   39     39     40    1
   40     40     41    2
   41     16     36    1
   42     17     42    1
   43     43     44    2
   44     43     48    1
   45     44     45    1
   46     45     46    2
   47     46     47    1
   48     47     48    2
   49     17     43    1
   50      5     49    1
   51     10     49    1
   52     29     49    1
   53     15     49    1
   54     25     49    1
   55     28     49    1
   56     24     49    1
   57     21     49    1
   58     20     49    1
   59     18     49    1
   60      3     50    1
   61     12     51    1
   62     35     52    1
   63     35     53    1
   64     35     54    1
   65     37     55    1
   66     38     56    1
   67     39     57    1
   68     40     58    1
   69     41     59    1
   70     42     60    1
   71     42     61    1
   72     42     62    1
   73     44     63    1
   74     45     64    1
   75     46     65    1
   76     47     66    1
   77     48     67    1
#
#	File Created by: Spartan '14 Export
#

@<TRIPOS>MOLECULE
*****
75 85
SMALL
USER_CHARGES


@<TRIPOS>ATOM
    1   C1        -1.112777827    -3.019508559     0.345535005     C.2   1  *****   -0.468444
    2   C2        -2.447937854    -3.152868140     0.770737052     C.2   1  *****    0.641575
    3   C3        -3.202778222    -1.959914359     0.959526105     C.2   1  *****   -0.579362
    4   C4        -2.652703523    -0.714642783     0.727870957     C.2   1  *****    0.446304
    5   N5        -1.378741219    -0.588563981     0.315237146       N   1  *****   -0.559492
    6   C6        -0.701551708    -1.695619451     0.167444485     C.2   1  *****    0.328379
    7   C7         2.547650372    -3.002308024    -0.728033743     C.2   1  *****    0.627746
    8   C8         1.202321581    -2.915206771    -0.345732981     C.2   1  *****   -0.491770
    9   C9         0.691560087    -1.640159328    -0.211972759     C.2   1  *****    0.366064
   10   N10        1.308692860    -0.494452747    -0.376854832       N   1  *****   -0.511787
   11   C11        2.590680516    -0.562372429    -0.756376395     C.2   1  *****    0.330600
   12   C12        3.234244953    -1.782724453    -0.949590997     C.2   1  *****   -0.485598
   13   C13       -3.219057813     0.652097536     1.035049687     C.2   1  *****    0.396365
   14   C14        3.103064641     0.832744572    -1.046809796     C.2   1  *****    0.449673
   15   O15       -2.404512232     1.527893431     1.346425813       O   1  *****   -0.426104
   16   N16       -4.549394524     0.876097834     1.014068260     N.3   1  *****   -0.207760
   17   N17        4.427131372     1.107833175    -1.017531361     N.3   1  *****   -0.250690
   18   O18        2.260450903     1.680001041    -1.350535710       O   1  *****   -0.424087
   19   N19       -1.724178329     1.084282725    -2.347734597       N   1  *****    0.873923
   20   O20       -0.484798344     0.802591197    -2.281355521       O   1  *****   -0.583446
   21   O21       -2.187204018     1.774383035    -1.375288569       O   1  *****   -0.580847
   22   O22       -2.434525877     0.698894968    -3.257640795       O   1  *****   -0.423841
   23   N23       -0.124190172     4.545878278     0.102539948       N   1  *****    0.885790
   24   O24        0.305887489     3.892643571    -0.914877302       O   1  *****   -0.597331
   25   O25       -0.546895304     3.824231651     1.074881354       O   1  *****   -0.597302
   26   O26       -0.130232672     5.753513955     0.140990775       O   1  *****   -0.403670
   27   N27        1.594387346     1.050220827     2.321777434       N   1  *****    0.875592
   28   O28        0.372607586     0.701562334     2.251389787       O   1  *****   -0.579377
   29   O29        2.005816664     1.821680925     1.389537208       O   1  *****   -0.576691
   30   O30        2.338017821     0.649572443     3.199521333       O   1  *****   -0.430390
   31   C31        0.100788274    -3.886968605    -0.010044903     C.2   1  *****    0.656009
   32   O32        0.186508687    -5.093087546    -0.039174350     O.2   1  *****   -0.441396
   33   O33       -3.132324855    -4.256765995     1.046261778     O.3   1  *****   -0.247764
   34   C34       -2.506569644    -5.540681732     1.026614166     C.3   1  *****   -0.383916
   35   O35        3.098257034    -4.205256868    -0.862990102     O.3   1  *****   -0.250183
   36   C36        4.469542901    -4.304044922    -1.231257577     C.3   1  *****   -0.337743
   37   C37       -4.996665326     2.218916199     1.387167294     C.3   1  *****   -0.560915
   38   C38       -5.442283060     0.078784374     0.228415452     C.2   1  *****    0.455877
   39   C39       -5.231424671    -0.043985720    -1.145011793     C.2   1  *****   -0.269255
   40   C40       -6.110454563    -0.813208867    -1.900819330     C.2   1  *****   -0.091833
   41   C41       -7.199502301    -1.435346583    -1.298161894     C.2   1  *****   -0.149831
   42   C42       -7.416330338    -1.288123225     0.070026768     C.2   1  *****   -0.095268
   43   C43       -6.538687380    -0.530574694     0.836964026     C.2   1  *****   -0.294680
   44   C44        4.817038711     2.475165620    -1.365521202     C.3   1  *****   -0.566709
   45   C45        5.349090750     0.331593516    -0.247101277     C.2   1  *****    0.484962
   46   C46        5.132233547     0.150754521     1.119097661     C.2   1  *****   -0.271708
   47   C47        6.027829720    -0.620419976     1.853383014     C.2   1  *****   -0.089490
   48   C48        7.140504301    -1.187256886     1.238527325     C.2   1  *****   -0.147376
   49   C49        7.365869363    -0.978531657    -0.120968337     C.2   1  *****   -0.099256
   50   C50        6.471197095    -0.218845902    -0.866644994     C.2   1  *****   -0.306430
   51   Nd51      -0.099764803     1.691428273     0.012778686      Nd   1  *****    1.847534
   52   H52       -4.225169137    -2.073677731     1.294677995       H   1  *****    0.189753
   53   H53        4.270198157    -1.792206038    -1.254420932       H   1  *****    0.155978
   54   H54       -3.291026712    -6.241349436     1.309057831       H   1  *****    0.190550
   55   H55       -2.120643544    -5.774502013     0.035126912       H   1  *****    0.188284
   56   H56       -1.688533299    -5.579693398     1.748370581       H   1  *****    0.182755
   57   H57        4.691441726    -5.369701051    -1.236667206       H   1  *****    0.193958
   58   H58        4.636850981    -3.889031642    -2.230187376       H   1  *****    0.163440
   59   H59        5.110455524    -3.794686960    -0.504799846       H   1  *****    0.152765
   60   H60       -4.879614939     2.907076399     0.543940817       H   1  *****    0.214443
   61   H61       -6.047084867     2.168012918     1.673940881       H   1  *****    0.193478
   62   H62       -4.391552410     2.579608173     2.217192568       H   1  *****    0.227779
   63   H63       -4.395069863     0.465046522    -1.615980961       H   1  *****    0.143817
   64   H64       -5.942469637    -0.914306926    -2.967939540       H   1  *****    0.144224
   65   H65       -7.884240088    -2.029964573    -1.894178822       H   1  *****    0.133625
   66   H66       -8.267011385    -1.768205262     0.542916315       H   1  *****    0.132056
   67   H67       -6.689338099    -0.416454205     1.906119637       H   1  *****    0.155023
   68   H68        4.218474296     2.814071653    -2.209469163       H   1  *****    0.229641
   69   H69        4.640650887     3.148619514    -0.520725144       H   1  *****    0.217372
   70   H70        5.876450022     2.480486179    -1.621994418       H   1  *****    0.198620
   71   H71        4.275050349     0.611627813     1.602335146       H   1  *****    0.144688
   72   H72        5.853676317    -0.766417570     2.914302614       H   1  *****    0.145322
   73   H73        7.839071651    -1.781215173     1.819015534       H   1  *****    0.131531
   74   H74        8.238599564    -1.408240283    -0.602410503       H   1  *****    0.129510
   75   H75        6.627605581    -0.058920281    -1.929162712       H   1  *****    0.156736


@<TRIPOS>BOND
    1      1      2    1
    2      1      6    2
    3      2      3    2
    4      3      4    1
    5      4      5    2
    6      5      6    1
    7      7      8    1
    8      7     12    2
    9      8      9    2
   10      9     10    1
   11     10     11    2
   12     11     12    1
   13      6      9    1
   14      4     13    1
   15     11     14    1
   16     13     15    2
   17     13     16    1
   18     14     17    1
   19     14     18    2
   20     19     20    2
   21     19     21    2
   22     19     22    1
   23     23     24    2
   24     23     25    2
   25     23     26    1
   26     27     28    2
   27     27     29    2
   28     27     30    1
   29     31     32    2
   30      1     31    1
   31      8     31    1
   32     33     34    1
   33      2     33    1
   34     35     36    1
   35      7     35    1
   36     16     37    1
   37     38     39    2
   38     38     43    1
   39     39     40    1
   40     40     41    2
   41     41     42    1
   42     42     43    2
   43     16     38    1
   44     17     44    1
   45     45     46    2
   46     45     50    1
   47     46     47    1
   48     47     48    2
   49     48     49    1
   50     49     50    2
   51     17     45    1
   52      5     51    1
   53     10     51    1
   54     29     51    1
   55     15     51    1
   56     25     51    1
   57     28     51    1
   58     24     51    1
   59     21     51    1
   60     20     51    1
   61     18     51    1
   62      3     52    1
   63     12     53    1
   64     34     54    1
   65     34     55    1
   66     34     56    1
   67     36     57    1
   68     36     58    1
   69     36     59    1
   70     37     60    1
   71     37     61    1
   72     37     62    1
   73     39     63    1
   74     40     64    1
   75     41     65    1
   76     42     66    1
   77     43     67    1
   78     44     68    1
   79     44     69    1
   80     44     70    1
   81     46     71    1
   82     47     72    1
   83     48     73    1
   84     49     74    1
   85     50     75    1
#
#	File Created by: Spartan '14 Export
#

@<TRIPOS>MOLECULE
*****
67 77
SMALL
USER_CHARGES


@<TRIPOS>ATOM
    1   C1        -1.155323388    -2.950075757     0.345095210     C.2   1  *****   -0.205109
    2   C2        -2.479313443    -3.064859545     0.747177444     C.2   1  *****    0.248278
    3   C3        -3.226863413    -1.889361677     0.953287516     C.2   1  *****   -0.359686
    4   C4        -2.639400643    -0.640191269     0.740670940     C.2   1  *****    0.377582
    5   N5        -1.365188032    -0.533770639     0.344079317       N   1  *****   -0.473966
    6   C6        -0.699100340    -1.648541208     0.184459289     C.2   1  *****    0.264065
    7   C7         2.482343562    -3.064867870    -0.727609621     C.2   1  *****    0.247976
    8   C8         1.155862768    -2.950050369    -0.333916487     C.2   1  *****   -0.204825
    9   C9         0.694852133    -1.648350591    -0.189432523     C.2   1  *****    0.263964
   10   N10        1.358676739    -0.533327553    -0.356481614       N   1  *****   -0.472012
   11   C11        2.636159098    -0.639747699    -0.742475737     C.2   1  *****    0.368480
   12   C12        3.228069856    -1.889330259    -0.940056982     C.2   1  *****   -0.355292
   13   C13       -3.183658974     0.741124400     1.044170331     C.2   1  *****    0.382422
   14   C14        3.180405402     0.741257680    -1.048262895     C.2   1  *****    0.386314
   15   O15       -2.352749098     1.601516041     1.348482366       O   1  *****   -0.415855
   16   N16       -4.510557395     0.981661089     1.025141610     N.3   1  *****   -0.210341
   17   N17        4.507341793     0.982347285    -1.029554305     N.3   1  *****   -0.205886
   18   O18        2.349931564     1.601491642    -1.354062507       O   1  *****   -0.417097
   19   N19       -1.657380372     1.051293643    -2.323364472       N   1  *****    0.869215
   20   O20       -0.428270149     0.724223871    -2.240848676       O   1  *****   -0.582866
   21   O21       -2.090060811     1.810383512    -1.389812453       O   1  *****   -0.576890
   22   O22       -2.382811523     0.642617725    -3.209722656       O   1  *****   -0.418217
   23   N23        0.000272260     4.565284263     0.004411351       N   1  *****    0.891204
   24   O24        0.463284040     3.877936788    -0.976200599       O   1  *****   -0.595530
   25   O25       -0.464545815     3.873537685     0.980900721       O   1  *****   -0.595973
   26   O26        0.001857991     5.772149804     0.007818141       O   1  *****   -0.399216
   27   N27        1.651168060     1.040644104     2.314986975       N   1  *****    0.876644
   28   O28        0.422831500     0.711431169     2.228949735       O   1  *****   -0.585552
   29   O29        2.083755155     1.805111823     1.385930535       O   1  *****   -0.579069
   30   O30        2.375953775     0.629065980     3.200577897       O   1  *****   -0.420933
   31   C31        0.001651192    -3.878167326     0.010275949     C.2   1  *****    0.491242
   32   O32        0.003653847    -5.082645785     0.016902352     O.2   1  *****   -0.383977
   33   Cl33      -3.217698172    -4.600742722     1.012901479      Cl   1  *****   -0.030110
   34   Cl34       3.226832726    -4.601238074    -0.972783810      Cl   1  *****   -0.030421
   35   C35       -4.939576512     2.330719079     1.398212090     C.3   1  *****   -0.564819
   36   C36       -5.414852769     0.187209191     0.250146139     C.2   1  *****    0.453364
   37   C37       -5.199136499     0.033141387    -1.119543323     C.2   1  *****   -0.272355
   38   C38       -6.084173898    -0.741182300    -1.863442846     C.2   1  *****   -0.094475
   39   C39       -7.183530947    -1.336836686    -1.253038500     C.2   1  *****   -0.144878
   40   C40       -7.405398664    -1.157609839     0.110747049     C.2   1  *****   -0.103541
   41   C41       -6.522224121    -0.395186037     0.866314329     C.2   1  *****   -0.277234
   42   C42        4.935421779     2.330637609    -1.406542514     C.3   1  *****   -0.565379
   43   C43        5.412689552     0.190069033    -0.253772500     C.2   1  *****    0.448623
   44   C44        5.196367894     0.035639578     1.115774662     C.2   1  *****   -0.266198
   45   C45        6.082145302    -0.737257273     1.860278424     C.2   1  *****   -0.097348
   46   C46        7.182944946    -1.331060386     1.250699151     C.2   1  *****   -0.144461
   47   C47        7.405483494    -1.151354759    -0.112912339     C.2   1  *****   -0.101406
   48   C48        6.521500329    -0.390486471    -0.869132170     C.2   1  *****   -0.279934
   49   Nd49      -0.002582479     1.716145863    -0.003612272      Nd   1  *****    1.839404
   50   H50       -4.258542585    -1.969390414     1.269287206       H   1  *****    0.150632
   51   H51        4.262250900    -1.969783884    -1.247602386       H   1  *****    0.150148
   52   H52       -4.810424635     3.017270410     0.555596111       H   1  *****    0.218350
   53   H53       -5.991239559     2.294627791     1.682061029       H   1  *****    0.196268
   54   H54       -4.331388138     2.681992391     2.230057485       H   1  *****    0.231076
   55   H55       -4.355505019     0.522363373    -1.598582906       H   1  *****    0.145636
   56   H56       -5.912489757    -0.866932926    -2.927272964       H   1  *****    0.146759
   57   H57       -7.872372954    -1.935893065    -1.839535951       H   1  *****    0.136167
   58   H58       -8.264124446    -1.617110214     0.589225873       H   1  *****    0.135223
   59   H59       -6.676685367    -0.257924038     1.932194883       H   1  *****    0.152103
   60   H60        4.329361480     2.677934001    -2.241626683       H   1  *****    0.230087
   61   H61        4.802645745     3.020355308    -0.567083764       H   1  *****    0.218387
   62   H62        5.987983160     2.294891650    -1.686972589       H   1  *****    0.196496
   63   H63        4.351572914     0.523301061     1.594321799       H   1  *****    0.143781
   64   H64        5.909846623    -0.863323792     2.923970815       H   1  *****    0.147308
   65   H65        7.872354815    -1.928984721     1.837677159       H   1  *****    0.136016
   66   H66        8.265355621    -1.609328905    -0.590799404       H   1  *****    0.134866
   67   H67        6.676362562    -0.253284668    -1.934952041       H   1  *****    0.152769


@<TRIPOS>BOND
    1      1      2    1
    2      1      6    2
    3      2      3    2
    4      3      4    1
    5      4      5    2
    6      5      6    1
    7      7      8    1
    8      7     12    2
    9      8      9    2
   10      9     10    1
   11     10     11    2
   12     11     12    1
   13      6      9    1
   14      4     13    1
   15     11     14    1
   16     13     15    2
   17     13     16    1
   18     14     17    1
   19     14     18    2
   20     19     20    2
   21     19     21    2
   22     19     22    1
   23     23     24    2
   24     23     25    2
   25     23     26    1
   26     27     28    2
   27     27     29    2
   28     27     30    1
   29     31     32    2
   30      1     31    1
   31      8     31    1
   32      2     33    1
   33      7     34    1
   34     16     35    1
   35     36     37    2
   36     36     41    1
   37     37     38    1
   38     38     39    2
   39     39     40    1
   40     40     41    2
   41     16     36    1
   42     17     42    1
   43     43     44    2
   44     43     48    1
   45     44     45    1
   46     45     46    2
   47     46     47    1
   48     47     48    2
   49     17     43    1
   50      5     49    1
   51     10     49    1
   52     29     49    1
   53     15     49    1
   54     25     49    1
   55     28     49    1
   56     24     49    1
   57     21     49    1
   58     20     49    1
   59     18     49    1
   60      3     50    1
   61     12     51    1
   62     35     52    1
   63     35     53    1
   64     35     54    1
   65     37     55    1
   66     38     56    1
   67     39     57    1
   68     40     58    1
   69     41     59    1
   70     42     60    1
   71     42     61    1
   72     42     62    1
   73     44     63    1
   74     45     64    1
   75     46     65    1
   76     47     66    1
   77     48     67    1
#
#	File Created by: Spartan '14 Export
#

@<TRIPOS>MOLECULE
*****
67 77
SMALL
USER_CHARGES


@<TRIPOS>ATOM
    1   C1        -1.145996904    -3.154325681     0.357075265     C.2   1  *****   -0.389931
    2   C2        -2.465346094    -3.252272786     0.770600386     C.2   1  *****    0.539681
    3   C3        -3.215736405    -2.086190923     0.990115271     C.2   1  *****   -0.485000
    4   C4        -2.630180191    -0.838675735     0.773055082     C.2   1  *****    0.377933
    5   N5        -1.359616521    -0.735255023     0.361024015       N   1  *****   -0.503527
    6   C6        -0.695791867    -1.850556829     0.193493804     C.2   1  *****    0.322535
    7   C7         2.471648114    -3.251726268    -0.749963676     C.2   1  *****    0.540217
    8   C8         1.149823978    -3.154099959    -0.344416984     C.2   1  *****   -0.389084
    9   C9         0.694319187    -1.850218437    -0.197152957     C.2   1  *****    0.320477
   10   N10        1.355388504    -0.734484360    -0.372504714       N   1  *****   -0.502557
   11   C11        2.629451646    -0.837646804    -0.773814006     C.2   1  *****    0.376252
   12   C12        3.219879285    -2.085471995    -0.975759126     C.2   1  *****   -0.484767
   13   C13       -3.167856549     0.543318375     1.083984078     C.2   1  *****    0.418829
   14   C14        3.166903173     0.544051825    -1.087292284     C.2   1  *****    0.420508
   15   O15       -2.331714726     1.402268136     1.377909795       O   1  *****   -0.422868
   16   N16       -4.494393308     0.786132221     1.082309736     N.3   1  *****   -0.227225
   17   N17        4.493547454     0.787256336    -1.086395472     N.3   1  *****   -0.228602
   18   O18        2.331150462     1.402838408    -1.382558298       O   1  *****   -0.423274
   19   N19       -1.685069291     0.850081125    -2.303812162       N   1  *****    0.870607
   20   O20       -0.454765203     0.524367992    -2.237873540       O   1  *****   -0.584090
   21   O21       -2.106144086     1.608463765    -1.364340556       O   1  *****   -0.578598
   22   O22       -2.422087753     0.440809300    -3.180456354       O   1  *****   -0.418300
   23   N23       -0.000283209     4.362464693     0.003023654       N   1  *****    0.886251
   24   O24        0.451347951     3.674515080    -0.982460757       O   1  *****   -0.594725
   25   O25       -0.453005159     3.671468620     0.985614976       O   1  *****   -0.594821
   26   O26        0.000797698     5.569419978     0.005312368       O   1  *****   -0.397531
   27   N27        1.680700929     0.840479940     2.296335002       N   1  *****    0.873115
   28   O28        0.451271724     0.511977618     2.226870393       O   1  *****   -0.585102
   29   O29        2.101335576     1.604581312     1.361451325       O   1  *****   -0.578610
   30   O30        2.417242734     0.428678950     3.172238233       O   1  *****   -0.419495
   31   C31        0.003495679    -4.085483631     0.011279106     C.2   1  *****    0.604133
   32   O32        0.005736862    -5.289429398     0.018263036     O.2   1  *****   -0.383166
   33   F33       -3.040944586    -4.424549578     0.978365664       F   1  *****   -0.158172
   34   F34        3.052385393    -4.424097617    -0.942388085       F   1  *****   -0.158460
   35   C35       -4.916466545     2.136186735     1.459560250     C.3   1  *****   -0.556282
   36   C36       -5.410627025    -0.008537482     0.321728473     C.2   1  *****    0.458085
   37   C37       -5.217414730    -0.161207173    -1.051413364     C.2   1  *****   -0.268451
   38   C38       -6.113422761    -0.936635087    -1.780905883     C.2   1  *****   -0.093918
   39   C39       -7.201112561    -1.535197089    -1.152576775     C.2   1  *****   -0.149376
   40   C40       -7.400486625    -1.357469937     0.214895353     C.2   1  *****   -0.082473
   41   C41       -6.506303121    -0.593532777     0.955963418     C.2   1  *****   -0.302938
   42   C42        4.914532407     2.136444896    -1.467981126     C.3   1  *****   -0.557772
   43   C43        5.410750401    -0.004755945    -0.324380436     C.2   1  *****    0.460317
   44   C44        5.217035708    -0.156390307     1.048805442     C.2   1  *****   -0.269601
   45   C45        6.113630018    -0.929934891     1.779571032     C.2   1  *****   -0.092149
   46   C46        7.202526787    -1.527604340     1.152503974     C.2   1  *****   -0.150325
   47   C47        7.402468659    -1.350833688    -0.215011635     C.2   1  *****   -0.081277
   48   C48        6.507645267    -0.588874947    -0.957372939     C.2   1  *****   -0.304435
   49   Nd49      -0.002005554     1.512345292    -0.003144464      Nd   1  *****    1.843086
   50   H50       -4.243065925    -2.183031645     1.315793878       H   1  *****    0.192871
   51   H51        4.249876413    -2.182550120    -1.292775132       H   1  *****    0.192617
   52   H52       -4.796845055     2.821753290     0.614755442       H   1  *****    0.216409
   53   H53       -5.964494494     2.102094828     1.756823456       H   1  *****    0.197186
   54   H54       -4.297133308     2.487152403     2.283275666       H   1  *****    0.227737
   55   H55       -4.381626578     0.328607194    -1.543580574       H   1  *****    0.143681
   56   H56       -5.959465385    -1.061371347    -2.847583127       H   1  *****    0.147575
   57   H57       -7.898443278    -2.135239006    -1.727925912       H   1  *****    0.136646
   58   H58       -8.250179254    -1.818935851     0.707412454       H   1  *****    0.131984
   59   H59       -6.643217730    -0.456912133     2.024347052       H   1  *****    0.158276
   60   H60        4.297769169     2.482922657    -2.295554369       H   1  *****    0.228073
   61   H61        4.790602710     2.825670836    -0.626780035       H   1  *****    0.216814
   62   H62        5.963677433     2.102686254    -1.761185768       H   1  *****    0.197478
   63   H63        4.380202717     0.332510996     1.540066609       H   1  *****    0.143384
   64   H64        5.959135680    -1.053881122     2.846264060       H   1  *****    0.147190
   65   H65        7.900315117    -2.126162728     1.728837764       H   1  *****    0.136596
   66   H66        8.253101133    -1.811573743    -0.706589744       H   1  *****    0.131690
   67   H67        6.644897352    -0.453368525    -2.025845850       H   1  *****    0.158666


@<TRIPOS>BOND
    1      1      2    1
    2      1      6    2
    3      2      3    2
    4      3      4    1
    5      4      5    2
    6      5      6    1
    7      7      8    1
    8      7     12    2
    9      8      9    2
   10      9     10    1
   11     10     11    2
   12     11     12    1
   13      6      9    1
   14      4     13    1
   15     11     14    1
   16     13     15    2
   17     13     16    1
   18     14     17    1
   19     14     18    2
   20     19     20    2
   21     19     21    2
   22     19     22    1
   23     23     24    2
   24     23     25    2
   25     23     26    1
   26     27     28    2
   27     27     29    2
   28     27     30    1
   29     31     32    2
   30      1     31    1
   31      8     31    1
   32      2     33    1
   33      7     34    1
   34     16     35    1
   35     36     37    2
   36     36     41    1
   37     37     38    1
   38     38     39    2
   39     39     40    1
   40     40     41    2
   41     16     36    1
   42     17     42    1
   43     43     44    2
   44     43     48    1
   45     44     45    1
   46     45     46    2
   47     46     47    1
   48     47     48    2
   49     17     43    1
   50      5     49    1
   51     10     49    1
   52     29     49    1
   53     15     49    1
   54     25     49    1
   55     28     49    1
   56     24     49    1
   57     21     49    1
   58     20     49    1
   59     18     49    1
   60      3     50    1
   61     12     51    1
   62     35     52    1
   63     35     53    1
   64     35     54    1
   65     37     55    1
   66     38     56    1
   67     39     57    1
   68     40     58    1
   69     41     59    1
   70     42     60    1
   71     42     61    1
   72     42     62    1
   73     44     63    1
   74     45     64    1
   75     46     65    1
   76     47     66    1
   77     48     67    1
#
#	File Created by: Spartan '14 Export
#

@<TRIPOS>MOLECULE
*****
58 65
SMALL
USER_CHARGES


@<TRIPOS>ATOM
    1   C1        -1.932078429    -3.181764969     1.284430503     C.2   1  *****    0.172171
    2   C2        -2.656013347    -1.999256986     1.359499996     C.2   1  *****   -0.371088
    3   C3        -1.994629237    -0.803670074     1.080237806     C.2   1  *****    0.406659
    4   N4        -0.702723123    -0.786895280     0.762852188       N   1  *****   -0.627802
    5   C5         0.010370720    -1.912096523     0.717118731     C.2   1  *****    0.599316
    6   C6        -0.579284509    -3.149880028     0.959302005     C.2   1  *****   -0.464119
    7   C7         1.419302179    -1.630799574     0.254600237     C.2   1  *****    0.240932
    8   C8        -2.542481831     0.597510404     1.206017887     C.2   1  *****    0.433294
    9   O9         1.551344500    -0.645905835    -0.490124221       O   1  *****   -0.518565
   10   O10       -1.726785323     1.490894187     1.476803170       O   1  *****   -0.559948
   11   N11        2.459549746    -2.399820550     0.620337004     N.3   1  *****   -0.033852
   12   C12        3.755313807    -2.150145293     0.044207638     C.2   1  *****    0.360323
   13   C13        2.410512659    -3.387478061     1.697160768     C.3   1  *****   -0.575183
   14   N14       -3.859875511     0.850072044     1.079461360     N.3   1  *****   -0.173761
   15   C15       -4.735239310     0.005239360     0.324200383     C.2   1  *****    0.348046
   16   C16       -4.299039360     2.235718014     1.286001908     C.3   1  *****   -0.556978
   17   C17       -5.881517348    -0.517315400     0.921124731     C.2   1  *****   -0.213695
   18   C18       -6.746494449    -1.313908653     0.182215142     C.2   1  *****   -0.171317
   19   C19       -6.454518261    -1.575973364    -1.153853228     C.2   1  *****    0.131370
   20   C20       -5.324229184    -1.041074907    -1.761795910     C.2   1  *****   -0.179178
   21   C21       -4.464235141    -0.238048414    -1.021743350     C.2   1  *****   -0.197408
   22   C22        4.324590619    -0.879148994     0.069314238     C.2   1  *****   -0.276114
   23   C23        5.577528858    -0.678202692    -0.494987701     C.2   1  *****   -0.079119
   24   C24        6.259614641    -1.753283785    -1.053313511     C.2   1  *****    0.096671
   25   C25        5.704289251    -3.027731172    -1.066926074     C.2   1  *****   -0.112297
   26   C26        4.442776213    -3.221549098    -0.519707936     C.2   1  *****   -0.312338
   27   N27        2.806863856     2.027760842    -1.391110389       N   1  *****    0.941786
   28   N28       -1.775691282     2.491163799    -1.348367592       N   1  *****    0.963075
   29   N29        1.421839733     1.810873983     2.835610255       N   1  *****    0.915483
   30   O30        2.820566276     2.014449654    -0.104727954       O   1  *****   -0.622472
   31   O31        1.645949218     1.944843073    -1.919672846       O   1  *****   -0.620230
   32   O32       -1.460150934     1.243938125    -1.379924254       O   1  *****   -0.618196
   33   O33       -0.956013812     3.256172790    -0.752115869       O   1  *****   -0.577993
   34   O34        1.443165212     0.667598488     2.244382632       O   1  *****   -0.630477
   35   O35        0.935189557     2.773244202     2.148386869       O   1  *****   -0.570900
   36   O36        3.820836092     2.104304974    -2.043486858       O   1  *****   -0.411103
   37   O37       -2.814540318     2.892060869    -1.834694041       O   1  *****   -0.441215
   38   O38        1.829376803     1.956346225     3.962977756       O   1  *****   -0.411451
   39   Nd39       0.466697229     1.474673695     0.160848270      Nd   1  *****    1.930876
   40   Cl40      -7.534142185    -2.586839513    -2.079673560      Cl   1  *****   -0.097689
   41   Cl41       7.838804960    -1.505149034    -1.753553235      Cl   1  *****   -0.102877
   42   H42       -2.421264691    -4.130278207     1.477779793       H   1  *****    0.112158
   43   H43       -3.706474392    -2.007835524     1.616766693       H   1  *****    0.144862
   44   H44       -0.013161499    -4.068969384     0.881335231       H   1  *****    0.197325
   45   H45        3.338723885    -3.311358499     2.263976197       H   1  *****    0.211483
   46   H46        2.318649652    -4.409502705     1.315718888       H   1  *****    0.183816
   47   H47        1.582802523    -3.173955536     2.371340303       H   1  *****    0.204793
   48   H48       -4.160937790     2.816180489     0.368190406       H   1  *****    0.209704
   49   H49       -3.708205960     2.682226856     2.083443454       H   1  *****    0.242685
   50   H50       -5.355381225     2.225609573     1.554992303       H   1  *****    0.194657
   51   H51       -6.090358813    -0.308010864     1.965537431       H   1  *****    0.149726
   52   H52       -7.638339420    -1.730683728     0.635009994       H   1  *****    0.155457
   53   H53       -5.124721611    -1.237158973    -2.808567482       H   1  *****    0.167821
   54   H54       -3.594220861     0.218779845    -1.485442954       H   1  *****    0.152912
   55   H55        3.795805335    -0.039378811     0.501441786       H   1  *****    0.199851
   56   H56        6.008422212     0.315536777    -0.507159573       H   1  *****    0.146944
   57   H57        6.245551016    -3.853700321    -1.512047624       H   1  *****    0.143193
   58   H58        3.991393924    -4.207869064    -0.548851745       H   1  *****    0.169976


@<TRIPOS>BOND
    1      1      2    2
    2      1      6    1
    3      2      3    1
    4      3      4    2
    5      4      5    1
    6      5      6    2
    7      5      7    1
    8      3      8    1
    9      7      9    2
   10      8     10    2
   11      7     11    1
   12     11     12    1
   13     11     13    1
   14      8     14    1
   15     14     15    1
   16     14     16    1
   17     15     17    2
   18     15     21    1
   19     17     18    1
   20     18     19    2
   21     19     20    1
   22     20     21    2
   23     12     22    2
   24     12     26    1
   25     22     23    1
   26     23     24    2
   27     24     25    1
   28     25     26    2
   29     27     30    2
   30     27     31    2
   31     28     32    2
   32     28     33    2
   33     29     34    2
   34     29     35    2
   35     27     36    1
   36     28     37    1
   37     29     38    1
   38      4     39    1
   39     10     39    1
   40     30     39    1
   41     31     39    1
   42     32     39    1
   43     33     39    1
   44     34     39    1
   45     35     39    1
   46      9     39    1
   47     19     40    1
   48     24     41    1
   49      1     42    1
   50      2     43    1
   51      6     44    1
   52     13     45    1
   53     13     46    1
   54     13     47    1
   55     16     48    1
   56     16     49    1
   57     16     50    1
   58     17     51    1
   59     18     52    1
   60     20     53    1
   61     21     54    1
   62     22     55    1
   63     23     56    1
   64     25     57    1
   65     26     58    1
#
#	File Created by: Spartan '14 Export
#

@<TRIPOS>MOLECULE
*****
58 65
SMALL
USER_CHARGES


@<TRIPOS>ATOM
    1   C1        -1.868276197    -3.447176738     0.837293952     C.2   1  *****    0.163011
    2   C2        -2.607671299    -2.286288665     1.021119550     C.2   1  *****   -0.366309
    3   C3        -1.961555790    -1.061085656     0.858139009     C.2   1  *****    0.403172
    4   N4        -0.668612010    -1.000492054     0.549762018       N   1  *****   -0.616787
    5   C5         0.059294093    -2.107495830     0.400691610     C.2   1  *****    0.579962
    6   C6        -0.515143574    -3.369892507     0.521526289     C.2   1  *****   -0.450224
    7   C7         1.469501873    -1.758110022    -0.008368966     C.2   1  *****    0.237513
    8   C8        -2.526131276     0.319495936     1.099343830     C.2   1  *****    0.433710
    9   O9         1.593651530    -0.706053185    -0.657404369       O   1  *****   -0.518710
   10   O10       -1.718002095     1.200535828     1.429522938       O   1  *****   -0.561439
   11   N11        2.526498739    -2.518014185     0.321805006     N.3   1  *****    0.004361
   12   C12        3.831385920    -2.102077611    -0.126601922     C.2   1  *****    0.307832
   13   C13        2.487055975    -3.636654577     1.260559342     C.3   1  *****   -0.608370
   14   N14       -3.846448367     0.567060569     1.004290419     N.3   1  *****   -0.163493
   15   C15       -4.726596458    -0.237549601     0.211060742     C.2   1  *****    0.261018
   16   C16       -4.295679810     1.931560683     1.306687188     C.3   1  *****   -0.547320
   17   C17       -5.846750240    -0.825510164     0.798231118     C.2   1  *****   -0.155437
   18   C18       -6.715246061    -1.585921206     0.025931500     C.2   1  *****   -0.312084
   19   C19       -6.444290757    -1.736647918    -1.327438572     C.2   1  *****    0.388125
   20   C20       -5.346778619    -1.142377594    -1.931318196     C.2   1  *****   -0.329470
   21   C21       -4.484976790    -0.375881240    -1.156474791     C.2   1  *****   -0.117332
   22   C22        4.320856851    -0.845391396     0.223497633     C.2   1  *****   -0.231663
   23   C23        5.576598175    -0.452880647    -0.215774937     C.2   1  *****   -0.219316
   24   C24        6.329067942    -1.337833034    -0.973433850     C.2   1  *****    0.343354
   25   C25        5.863536990    -2.598214088    -1.315238309     C.2   1  *****   -0.241257
   26   C26        4.595499827    -2.977910790    -0.891387769     C.2   1  *****   -0.266525
   27   N27        2.759593601     2.075741963    -1.411683260       N   1  *****    0.937821
   28   N28       -1.812188497     2.387034612    -1.337121953       N   1  *****    0.952987
   29   N29        1.444355920     1.528915042     2.791195534       N   1  *****    0.916831
   30   O30        2.771908063     2.009621250    -0.127900443       O   1  *****   -0.619506
   31   O31        1.607613762     1.931476489    -1.949348978       O   1  *****   -0.623518
   32   O32       -1.474701885     1.150175566    -1.439806397       O   1  *****   -0.612278
   33   O33       -1.005670939     3.132465071    -0.699354955       O   1  *****   -0.578656
   34   O34        1.499320592     0.427723461     2.124240710       O   1  *****   -0.639266
   35   O35        0.898124706     2.510274010     2.182522225       O   1  *****   -0.569286
   36   O36        3.764833069     2.255971334    -2.056569421       O   1  *****   -0.407611
   37   O37       -2.859434055     2.796335165    -1.799092124       O   1  *****   -0.437890
   38   O38        1.877327033     1.617391043     3.915332432       O   1  *****   -0.411555
   39   Nd39       0.456809432     1.329757139     0.108845446      Nd   1  *****    1.932151
   40   F40       -7.272921142    -2.478250942    -2.072136729       F   1  *****   -0.182612
   41   F41        7.545467243    -0.966049847    -1.390674822       F   1  *****   -0.183058
   42   H42       -2.346706666    -4.415277714     0.939259850       H   1  *****    0.114102
   43   H43       -3.658643320    -2.334274699     1.271295860       H   1  *****    0.146065
   44   H44        0.062632885    -4.270637298     0.359100742       H   1  *****    0.195840
   45   H45        2.468394858    -4.601986642     0.743731403       H   1  *****    0.190810
   46   H46        1.621207182    -3.557507665     1.916133246       H   1  *****    0.207193
   47   H47        3.386251057    -3.591157325     1.875383812       H   1  *****    0.216705
   48   H48       -4.188309076     2.566700102     0.421594012       H   1  *****    0.207366
   49   H49       -3.688431178     2.336989092     2.113575095       H   1  *****    0.240097
   50   H50       -5.344319357     1.890877707     1.601756749       H   1  *****    0.194560
   51   H51       -6.029365091    -0.694461182     1.860109798       H   1  *****    0.145767
   52   H52       -7.590740244    -2.060341084     0.453435550       H   1  *****    0.189099
   53   H53       -5.185287574    -1.269679734    -2.995391106       H   1  *****    0.202060
   54   H54       -3.634539449     0.130834036    -1.603959793       H   1  *****    0.140639
   55   H55        3.717396507    -0.167352722     0.813540293       H   1  *****    0.199844
   56   H56        5.962506570     0.533221009     0.011747058       H   1  *****    0.179060
   57   H57        6.482199013    -3.254947378    -1.915199638       H   1  *****    0.175050
   58   H58        4.199030993    -3.948994231    -1.169704893       H   1  *****    0.164867


@<TRIPOS>BOND
    1      1      2    2
    2      1      6    1
    3      2      3    1
    4      3      4    2
    5      4      5    1
    6      5      6    2
    7      5      7    1
    8      3      8    1
    9      7      9    2
   10      8     10    2
   11      7     11    1
   12     11     12    1
   13     11     13    1
   14      8     14    1
   15     14     15    1
   16     14     16    1
   17     15     17    2
   18     15     21    1
   19     17     18    1
   20     18     19    2
   21     19     20    1
   22     20     21    2
   23     12     22    2
   24     12     26    1
   25     22     23    1
   26     23     24    2
   27     24     25    1
   28     25     26    2
   29     27     30    2
   30     27     31    2
   31     28     32    2
   32     28     33    2
   33     29     34    2
   34     29     35    2
   35     27     36    1
   36     28     37    1
   37     29     38    1
   38      4     39    1
   39     10     39    1
   40     30     39    1
   41     31     39    1
   42     32     39    1
   43     33     39    1
   44     34     39    1
   45     35     39    1
   46      9     39    1
   47     19     40    1
   48     24     41    1
   49      1     42    1
   50      2     43    1
   51      6     44    1
   52     13     45    1
   53     13     46    1
   54     13     47    1
   55     16     48    1
   56     16     49    1
   57     16     50    1
   58     17     51    1
   59     18     52    1
   60     20     53    1
   61     21     54    1
   62     22     55    1
   63     23     56    1
   64     25     57    1
   65     26     58    1
#
#	File Created by: Spartan '14 Export
#

@<TRIPOS>MOLECULE
*****
60 67
SMALL
USER_CHARGES


@<TRIPOS>ATOM
    1   C1        -1.921744602    -3.220526343     1.276966985     C.2   1  *****    0.170802
    2   C2        -2.652810778    -2.041919393     1.344958642     C.2   1  *****   -0.371131
    3   C3        -1.997815626    -0.844179769     1.060827268     C.2   1  *****    0.409494
    4   N4        -0.705371996    -0.819819575     0.746842413       N   1  *****   -0.631343
    5   C5         0.014600265    -1.941050515     0.708504392     C.2   1  *****    0.588814
    6   C6        -0.568341275    -3.181381052     0.954756119     C.2   1  *****   -0.456149
    7   C7         1.423346461    -1.650912641     0.249461945     C.2   1  *****    0.262417
    8   C8        -2.557714404     0.552316202     1.180311152     C.2   1  *****    0.445359
    9   O9         1.550976154    -0.668398338    -0.497415445       O   1  *****   -0.518346
   10   O10       -1.754384427     1.452678957     1.459103059       O   1  *****   -0.557296
   11   N11        2.469988047    -2.411611499     0.620765192     N.3   1  *****   -0.054177
   12   C12        3.764971528    -2.148240702     0.052412407     C.2   1  *****    0.395326
   13   C13        2.421536632    -3.408380208     1.690246956     C.3   1  *****   -0.583500
   14   N14       -3.878982657     0.791706115     1.047272009     N.3   1  *****   -0.201928
   15   C15       -4.738739201    -0.051038643     0.275208055     C.2   1  *****    0.410058
   16   C16       -4.335039181     2.171180660     1.266489726     C.3   1  *****   -0.553393
   17   C17       -5.911249860    -0.548507388     0.845308110     C.2   1  *****   -0.232572
   18   C18       -6.761276071    -1.341504459     0.090670043     C.2   1  *****   -0.179703
   19   C19       -6.440703886    -1.636157005    -1.241698135     C.2   1  *****    0.107747
   20   C20       -5.273031387    -1.115579460    -1.812160946     C.2   1  *****   -0.181224
   21   C21       -4.425852090    -0.315713833    -1.058621836     C.2   1  *****   -0.218760
   22   C22        4.308521523    -0.865248325     0.061165173     C.2   1  *****   -0.278844
   23   C23        5.559153726    -0.652093537    -0.498346904     C.2   1  *****   -0.086803
   24   C24        6.281527464    -1.722016197    -1.039275139     C.2   1  *****    0.067638
   25   C25        5.735426619    -3.010961987    -1.025441135     C.2   1  *****   -0.115960
   26   C26        4.476395518    -3.219625686    -0.485364071     C.2   1  *****   -0.322187
   27   N27        2.785819178     1.994470860    -1.414183848       N   1  *****    0.933248
   28   N28       -1.803480057     2.444342409    -1.362853395       N   1  *****    0.951285
   29   N29        1.407088422     1.785174850     2.816583054       N   1  *****    0.910533
   30   O30        2.800583439     1.994181599    -0.127007720       O   1  *****   -0.620611
   31   O31        1.623728362     1.912238038    -1.939854325       O   1  *****   -0.613941
   32   O32       -1.473898648     1.199746631    -1.393802169       O   1  *****   -0.613896
   33   O33       -0.990507719     3.217806059    -0.768867661       O   1  *****   -0.572073
   34   O34        1.434356424     0.643454447     2.221084807       O   1  *****   -0.629670
   35   O35        0.910744373     2.745778161     2.133187435       O   1  *****   -0.567297
   36   O36        3.799624453     2.056529217    -2.067643227       O   1  *****   -0.403528
   37   O37       -2.847882243     2.832476934    -1.846294088       O   1  *****   -0.433475
   38   O38        1.817457981     1.929960420     3.942233096       O   1  *****   -0.405399
   39   Nd39       0.450309865     1.452373847     0.143885810      Nd   1  *****    1.924614
   40   C40       -7.308170343    -2.465794090    -2.014978597     C.1   1  *****    0.226646
   41   N41       -8.009829434    -3.148234389    -2.639343513     N.1   1  *****   -0.359943
   42   C42        7.575718669    -1.508869637    -1.603723717     C.1   1  *****    0.233396
   43   N43        8.631865295    -1.349727997    -2.058903457     N.1   1  *****   -0.367706
   44   H44       -2.404939151    -4.171245622     1.474187420       H   1  *****    0.116081
   45   H45       -3.703273536    -2.055387232     1.603006006       H   1  *****    0.144986
   46   H46        0.002620032    -4.097829261     0.882510150       H   1  *****    0.198109
   47   H47        3.353478640    -3.344128447     2.252159032       H   1  *****    0.218051
   48   H48        2.317640450    -4.426656658     1.302437384       H   1  *****    0.187735
   49   H49        1.600595417    -3.191100214     2.371427440       H   1  *****    0.209621
   50   H50       -4.195341661     2.763132048     0.356495454       H   1  *****    0.210105
   51   H51       -3.754580080     2.613202300     2.073882834       H   1  *****    0.245937
   52   H52       -5.392911834     2.148158684     1.528139282       H   1  *****    0.196946
   53   H53       -6.147165813    -0.321331971     1.879839208       H   1  *****    0.155847
   54   H54       -7.671174716    -1.739381070     0.524731655       H   1  *****    0.173077
   55   H55       -5.041083318    -1.327095383    -2.849619053       H   1  *****    0.183318
   56   H56       -3.537586908     0.128129988    -1.499544908       H   1  *****    0.155829
   57   H57        3.761759543    -0.030334988     0.478948650       H   1  *****    0.200991
   58   H58        5.968198803     0.350853581    -0.522606431       H   1  *****    0.161930
   59   H59        6.293768650    -3.837526844    -1.448991360       H   1  *****    0.159494
   60   H60        4.042114059    -4.213534794    -0.498345786       H   1  *****    0.175422


@<TRIPOS>BOND
    1      1      2    2
    2      1      6    1
    3      2      3    1
    4      3      4    2
    5      4      5    1
    6      5      6    2
    7      5      7    1
    8      3      8    1
    9      7      9    2
   10      8     10    2
   11      7     11    1
   12     11     12    1
   13     11     13    1
   14      8     14    1
   15     14     15    1
   16     14     16    1
   17     15     17    2
   18     15     21    1
   19     17     18    1
   20     18     19    2
   21     19     20    1
   22     20     21    2
   23     12     22    2
   24     12     26    1
   25     22     23    1
   26     23     24    2
   27     24     25    1
   28     25     26    2
   29     27     30    2
   30     27     31    2
   31     28     32    2
   32     28     33    2
   33     29     34    2
   34     29     35    2
   35     27     36    1
   36     28     37    1
   37     29     38    1
   38      4     39    1
   39     10     39    1
   40     30     39    1
   41     31     39    1
   42     32     39    1
   43     33     39    1
   44     34     39    1
   45     35     39    1
   46      9     39    1
   47     40     41    3
   48     19     40    1
   49     42     43    3
   50     24     42    1
   51      1     44    1
   52      2     45    1
   53      6     46    1
   54     13     47    1
   55     13     48    1
   56     13     49    1
   57     16     50    1
   58     16     51    1
   59     16     52    1
   60     17     53    1
   61     18     54    1
   62     20     55    1
   63     21     56    1
   64     22     57    1
   65     23     58    1
   66     25     59    1
   67     26     60    1
#
#	File Created by: Spartan '14 Export
#

@<TRIPOS>MOLECULE
*****
66 73
SMALL
USER_CHARGES


@<TRIPOS>ATOM
    1   C1        -1.943654860    -3.184399056     1.358956371     C.2   1  *****    0.169958
    2   C2        -2.654142478    -1.992263836     1.406553107     C.2   1  *****   -0.375101
    3   C3        -1.984861250    -0.812725878     1.079046411     C.2   1  *****    0.427671
    4   N4        -0.697242218    -0.822339473     0.743353753       N   1  *****   -0.614086
    5   C5         0.003951468    -1.955803676     0.727293959     C.2   1  *****    0.574330
    6   C6        -0.594801892    -3.178846554     1.015780029     C.2   1  *****   -0.460036
    7   C7         1.417831715    -1.692298840     0.271651544     C.2   1  *****    0.250592
    8   C8        -2.510288924     0.601496409     1.161065548     C.2   1  *****    0.371194
    9   O9         1.561086934    -0.737239888    -0.510912081       O   1  *****   -0.527024
   10   O10       -1.670023293     1.494726699     1.352910876       O   1  *****   -0.546021
   11   N11        2.460430018    -2.417449626     0.704270926     N.3   1  *****   -0.008122
   12   C12        3.776046274    -2.057984362     0.235826110     C.2   1  *****    0.290273
   13   C13        2.403818670    -3.402824415     1.780826811     C.3   1  *****   -0.608274
   14   N14       -3.824463437     0.872691193     1.075877346     N.3   1  *****   -0.099831
   15   C15       -4.758947162    -0.004620436     0.437696204     C.2   1  *****    0.222374
   16   C16       -4.227800608     2.275547183     1.222580464     C.3   1  *****   -0.569523
   17   C17       -5.857196282    -0.493206886     1.149699866     C.2   1  *****   -0.100231
   18   C18       -6.776790592    -1.315985109     0.525167378     C.2   1  *****   -0.398377
   19   C19       -6.614847565    -1.653767401    -0.825483695     C.2   1  *****    0.481335
   20   C20       -5.525889179    -1.150051557    -1.540189692     C.2   1  *****   -0.347203
   21   C21       -4.604857396    -0.319069604    -0.908719768     C.2   1  *****   -0.145413
   22   C22        4.300886365    -0.799399441     0.534864423     C.2   1  *****   -0.180060
   23   C23        5.568519795    -0.468269702     0.098609461     C.2   1  *****   -0.324640
   24   C24        6.332217018    -1.392028728    -0.625456373     C.2   1  *****    0.457157
   25   C25        5.807824061    -2.653261537    -0.913785615     C.2   1  *****   -0.277107
   26   C26        4.523650403    -2.977825827    -0.483531911     C.2   1  *****   -0.279522
   27   N27        2.725649537     1.972435160    -1.676775946       N   1  *****    0.936245
   28   N28       -1.815481989     2.318941406    -1.524033076       N   1  *****    0.953904
   29   N29        1.509219887     1.913792319     2.617372355       N   1  *****    0.926291
   30   O30        2.771512529     2.066537990    -0.396262779       O   1  *****   -0.614110
   31   O31        1.567587224     1.718032791    -2.160069804       O   1  *****   -0.625658
   32   O32       -1.497465471     1.074224498    -1.489354588       O   1  *****   -0.606764
   33   O33       -0.985613234     3.121808367    -0.995008890       O   1  *****   -0.580894
   34   O34        1.540288414     0.738139718     2.091106698       O   1  *****   -0.644449
   35   O35        0.966078394     2.819304405     1.900973552       O   1  *****   -0.569545
   36   O36        3.704336821     2.113969706    -2.370203414       O   1  *****   -0.409452
   37   O37       -2.868455943     2.689026024    -2.007636860       O   1  *****   -0.444685
   38   O38        1.960600726     2.133192191     3.716824617       O   1  *****   -0.418710
   39   Nd39       0.472712108     1.402291623    -0.011343527      Nd   1  *****    1.922481
   40   O40       -7.565158444    -2.465023074    -1.342030161     O.3   1  *****   -0.280350
   41   C41       -7.482269019    -2.809364549    -2.711177794     C.3   1  *****   -0.324968
   42   O42        7.561845229    -0.971117040    -1.001800725     O.3   1  *****   -0.276065
   43   C43        8.354868654    -1.832699583    -1.789244595     C.3   1  *****   -0.335530
   44   H44       -2.440721446    -4.120393230     1.589997707       H   1  *****    0.110239
   45   H45       -3.700963348    -1.981752015     1.677410665       H   1  *****    0.145789
   46   H46       -0.037692282    -4.105293711     0.960869666       H   1  *****    0.196405
   47   H47        2.378216189    -4.427119908     1.393874197       H   1  *****    0.191397
   48   H48        1.537450554    -3.231839313     2.418567260       H   1  *****    0.206647
   49   H49        3.301900094    -3.285476132     2.387496893       H   1  *****    0.214923
   50   H50       -4.111191428     2.803519615     0.270474749       H   1  *****    0.213721
   51   H51       -3.601516054     2.753703536     1.973538864       H   1  *****    0.237714
   52   H52       -5.274599483     2.300396953     1.525849569       H   1  *****    0.193073
   53   H53       -5.979895396    -0.229649875     2.195760576       H   1  *****    0.130127
   54   H54       -7.634436790    -1.710212636     1.058204985       H   1  *****    0.192921
   55   H55       -5.391209018    -1.381754519    -2.589087749       H   1  *****    0.181608
   56   H56       -3.771804810     0.102491207    -1.464156878       H   1  *****    0.144800
   57   H57        3.707074922    -0.080631210     1.087154228       H   1  *****    0.190634
   58   H58        5.983369919     0.513106560     0.295219913       H   1  *****    0.187503
   59   H59        6.377894702    -3.379709736    -1.478483839       H   1  *****    0.160253
   60   H60        4.105112377    -3.949589815    -0.726743657       H   1  *****    0.164755
   61   H61       -8.344282324    -3.444635261    -2.912944638       H   1  *****    0.181857
   62   H62       -7.528052087    -1.920050222    -3.350267144       H   1  *****    0.154495
   63   H63       -6.562983553    -3.365021356    -2.931254076       H   1  *****    0.138238
   64   H64        9.276374953    -1.288448725    -1.995216112       H   1  *****    0.185245
   65   H65        8.595419461    -2.761092214    -1.256068482       H   1  *****    0.135739
   66   H66        7.859904175    -2.078920855    -2.736353140       H   1  *****    0.149862


@<TRIPOS>BOND
    1      1      2    2
    2      1      6    1
    3      2      3    1
    4      3      4    2
    5      4      5    1
    6      5      6    2
    7      5      7    1
    8      3      8    1
    9      7      9    2
   10      8     10    2
   11      7     11    1
   12     11     12    1
   13     11     13    1
   14      8     14    1
   15     14     15    1
   16     14     16    1
   17     15     17    2
   18     15     21    1
   19     17     18    1
   20     18     19    2
   21     19     20    1
   22     20     21    2
   23     12     22    2
   24     12     26    1
   25     22     23    1
   26     23     24    2
   27     24     25    1
   28     25     26    2
   29     27     30    2
   30     27     31    2
   31     28     32    2
   32     28     33    2
   33     29     34    2
   34     29     35    2
   35     27     36    1
   36     28     37    1
   37     29     38    1
   38      4     39    1
   39     10     39    1
   40     30     39    1
   41     31     39    1
   42     32     39    1
   43     33     39    1
   44     34     39    1
   45     35     39    1
   46      9     39    1
   47     40     41    1
   48     19     40    1
   49     42     43    1
   50     24     42    1
   51      1     44    1
   52      2     45    1
   53      6     46    1
   54     13     47    1
   55     13     48    1
   56     13     49    1
   57     16     50    1
   58     16     51    1
   59     16     52    1
   60     17     53    1
   61     18     54    1
   62     20     55    1
   63     21     56    1
   64     22     57    1
   65     23     58    1
   66     25     59    1
   67     26     60    1
   68     41     61    1
   69     41     62    1
   70     41     63    1
   71     43     64    1
   72     43     65    1
   73     43     66    1
#
#	File Created by: Spartan '14 Export
#

@<TRIPOS>MOLECULE
*****
68 75
SMALL
USER_CHARGES


@<TRIPOS>ATOM
    1   C1        -2.038925687    -2.994917704     1.494801824     C.2   1  *****    0.157908
    2   C2        -2.711044104    -1.779453047     1.507717005     C.2   1  *****   -0.370355
    3   C3        -2.008126906    -0.634226480     1.133753107     C.2   1  *****    0.413192
    4   N4        -0.724606775    -0.694009514     0.788980564       N   1  *****   -0.616137
    5   C5        -0.059149205    -1.848440448     0.808649329     C.2   1  *****    0.582958
    6   C6        -0.693455928    -3.042182825     1.142393540     C.2   1  *****   -0.450469
    7   C7         1.360072916    -1.643590516     0.338896074     C.2   1  *****    0.248861
    8   C8        -2.491446712     0.796049420     1.176331881     C.2   1  *****    0.409819
    9   O9         1.531911044    -0.722952212    -0.476159620       O   1  *****   -0.525477
   10   O10       -1.629021574     1.669751408     1.346083874       O   1  *****   -0.549017
   11   N11        2.380697113    -2.390206189     0.791262637     N.3   1  *****   -0.044520
   12   C12        3.706088298    -2.101559785     0.302428133     C.2   1  *****    0.448801
   13   C13        2.298809612    -3.344475925     1.894777656     C.3   1  *****   -0.596611
   14   N14       -3.800736319     1.100750567     1.093498281     N.3   1  *****   -0.170070
   15   C15       -4.763034789     0.242295863     0.474060146     C.2   1  *****    0.453748
   16   C16       -4.169394644     2.515589848     1.228283088     C.3   1  *****   -0.573980
   17   C17       -5.892535591    -0.157703881     1.191501777     C.2   1  *****   -0.284904
   18   C18       -6.835558488    -0.968221663     0.582738353     C.2   1  *****   -0.073200
   19   C19       -6.670799993    -1.376902292    -0.746083859     C.2   1  *****   -0.125006
   20   C20       -5.545448208    -0.951884266    -1.455615653     C.2   1  *****   -0.105856
   21   C21       -4.590289372    -0.138888673    -0.855302429     C.2   1  *****   -0.267940
   22   C22        4.270297162    -0.844842692     0.513961638     C.2   1  *****   -0.317891
   23   C23        5.560742625    -0.604672920     0.071857628     C.2   1  *****   -0.015319
   24   C24        6.298802951    -1.606603721    -0.566788174     C.2   1  *****   -0.134296
   25   C25        5.716062436    -2.860048316    -0.767430423     C.2   1  *****   -0.042135
   26   C26        4.419871311    -3.110616641    -0.334790856     C.2   1  *****   -0.372418
   27   N27        2.774624529     1.888141358    -1.718879670       N   1  *****    0.939043
   28   N28       -1.769831879     2.411578738    -1.535014368       N   1  *****    0.947411
   29   N29        1.570174043     1.992447324     2.586016390       N   1  *****    0.923589
   30   O30        2.834332471     2.016901616    -0.440967419       O   1  *****   -0.617995
   31   O31        1.598827824     1.690035737    -2.186921372       O   1  *****   -0.625872
   32   O32       -1.480554737     1.159737918    -1.475993111       O   1  *****   -0.607049
   33   O33       -0.911491667     3.205489563    -1.039877128       O   1  *****   -0.574591
   34   O34        1.558225047     0.807153854     2.078577739       O   1  *****   -0.644860
   35   O35        1.066729085     2.905821267     1.850184469       O   1  *****   -0.566993
   36   O36        3.754655737     1.946452688    -2.420440466       O   1  *****   -0.403691
   37   O37       -2.822849059     2.794648675    -2.007207833       O   1  *****   -0.438863
   38   O38        2.022744906     2.212066873     3.683861728       O   1  *****   -0.412136
   39   Nd39       0.512213898     1.473849376    -0.029088717      Nd   1  *****    1.923366
   40   C40       -7.726252937    -2.255397247    -1.342762603     C.2   1  *****    0.655620
   41   C41       -7.607680015    -2.655838812    -2.793631336     C.3   1  *****   -0.725336
   42   O42       -8.661478839    -2.633253170    -0.660654469     O.2   1  *****   -0.464854
   43   C43        7.694175891    -1.285335092    -1.001700341     C.2   1  *****    0.639670
   44   C44        8.470626824    -2.320853297    -1.783007032     C.3   1  *****   -0.721790
   45   O45        8.190398846    -0.208988612    -0.727497491     O.2   1  *****   -0.454406
   46   H46       -2.562287119    -3.906570851     1.761790105       H   1  *****    0.116457
   47   H47       -3.753582628    -1.726668033     1.791118102       H   1  *****    0.148311
   48   H48       -0.166311311    -3.987183328     1.116081739       H   1  *****    0.196433
   49   H49        3.210993475    -3.253723821     2.484707751       H   1  *****    0.213283
   50   H50        2.216946128    -4.376137570     1.537207226       H   1  *****    0.191181
   51   H51        1.453665003    -3.112968928     2.541617253       H   1  *****    0.209709
   52   H52       -4.035476599     3.032874290     0.272971719       H   1  *****    0.214121
   53   H53       -3.532148118     2.980492615     1.978218322       H   1  *****    0.246333
   54   H54       -5.215395645     2.570757994     1.529722489       H   1  *****    0.198402
   55   H55       -6.014489745     0.162353698     2.221649638       H   1  *****    0.152843
   56   H56       -7.717249630    -1.305978303     1.115330348       H   1  *****    0.136457
   57   H57       -5.407726882    -1.241592558    -2.491231878       H   1  *****    0.148981
   58   H58       -3.729112563     0.223093187    -1.409431364       H   1  *****    0.149802
   59   H59        3.698366458    -0.066924691     1.005133452       H   1  *****    0.205771
   60   H60        6.019085598     0.367346191     0.210212386       H   1  *****    0.132057
   61   H61        6.266727269    -3.648915127    -1.267474837       H   1  *****    0.125287
   62   H62        3.961848602    -4.079565624    -0.504853606       H   1  *****    0.171320
   63   H63       -8.462509251    -3.278503546    -3.055950207       H   1  *****    0.210696
   64   H64       -6.683975054    -3.215525781    -2.975511350       H   1  *****    0.186816
   65   H65       -7.586337508    -1.775142628    -3.444205674       H   1  *****    0.204415
   66   H66        9.449316710    -1.909498350    -2.028769662       H   1  *****    0.209946
   67   H67        7.947820203    -2.591064772    -2.706529094       H   1  *****    0.197801
   68   H68        8.602268273    -3.239056064    -1.200371588       H   1  *****    0.183633


@<TRIPOS>BOND
    1      1      2    2
    2      1      6    1
    3      2      3    1
    4      3      4    2
    5      4      5    1
    6      5      6    2
    7      5      7    1
    8      3      8    1
    9      7      9    2
   10      8     10    2
   11      7     11    1
   12     11     12    1
   13     11     13    1
   14      8     14    1
   15     14     15    1
   16     14     16    1
   17     15     17    2
   18     15     21    1
   19     17     18    1
   20     18     19    2
   21     19     20    1
   22     20     21    2
   23     12     22    2
   24     12     26    1
   25     22     23    1
   26     23     24    2
   27     24     25    1
   28     25     26    2
   29     27     30    2
   30     27     31    2
   31     28     32    2
   32     28     33    2
   33     29     34    2
   34     29     35    2
   35     27     36    1
   36     28     37    1
   37     29     38    1
   38      4     39    1
   39     10     39    1
   40     30     39    1
   41     31     39    1
   42     32     39    1
   43     33     39    1
   44     34     39    1
   45     35     39    1
   46      9     39    1
   47     40     41    1
   48     40     42    2
   49     19     40    1
   50     43     44    1
   51     43     45    2
   52     24     43    1
   53      1     46    1
   54      2     47    1
   55      6     48    1
   56     13     49    1
   57     13     50    1
   58     13     51    1
   59     16     52    1
   60     16     53    1
   61     16     54    1
   62     17     55    1
   63     18     56    1
   64     20     57    1
   65     21     58    1
   66     22     59    1
   67     23     60    1
   68     25     61    1
   69     26     62    1
   70     41     63    1
   71     41     64    1
   72     41     65    1
   73     44     66    1
   74     44     67    1
   75     44     68    1
#
#	File Created by: Spartan '14 Export
#

@<TRIPOS>MOLECULE
*****
74 81
SMALL
USER_CHARGES


@<TRIPOS>ATOM
    1   C1        -2.124617494    -2.832380866     1.717887566     C.2   1  *****    0.145479
    2   C2        -2.781244141    -1.612466926     1.629049916     C.2   1  *****   -0.359817
    3   C3        -2.051599943    -0.501397311     1.203988932     C.2   1  *****    0.391732
    4   N4        -0.760339290    -0.601162981     0.901838042       N   1  *****   -0.606968
    5   C5        -0.111253990    -1.761541140     1.008424253     C.2   1  *****    0.563681
    6   C6        -0.771304987    -2.921275979     1.404384840     C.2   1  *****   -0.439895
    7   C7         1.314032382    -1.611751792     0.538884534     C.2   1  *****    0.250674
    8   C8        -2.514386775     0.934574001     1.130146160     C.2   1  *****    0.422745
    9   O9         1.500415466    -0.732146706    -0.322424910       O   1  *****   -0.529290
   10   O10       -1.641390628     1.807957180     1.265406506       O   1  *****   -0.560112
   11   N11        2.318938301    -2.355780827     1.023623002     N.3   1  *****   -0.019405
   12   C12        3.640657813    -2.144404189     0.492690492     C.2   1  *****    0.382187
   13   C13        2.213671995    -3.246596118     2.175272928     C.3   1  *****   -0.637810
   14   N14       -3.811184043     1.245292959     0.965733658     N.3   1  *****   -0.171781
   15   C15       -4.747739417     0.341585813     0.368789735     C.2   1  *****    0.377862
   16   C16       -4.159886079     2.670201358     0.956809149     C.3   1  *****   -0.581149
   17   C17       -4.546666672    -0.111483197    -0.934796872     C.2   1  *****   -0.222414
   18   C18       -5.463552022    -0.964120703    -1.526586726     C.2   1  *****   -0.268535
   19   C19       -6.622161933    -1.385010706    -0.839274156     C.2   1  *****    0.197356
   20   C20       -6.820196320    -0.890348355     0.469499117     C.2   1  *****   -0.268927
   21   C21       -5.897600255    -0.039905542     1.056146907     C.2   1  *****   -0.239457
   22   C22        4.334879519    -3.205590168    -0.075058484     C.2   1  *****   -0.342154
   23   C23        5.599913566    -3.013172661    -0.609239137     C.2   1  *****   -0.204269
   24   C24        6.204226295    -1.738599949    -0.598185292     C.2   1  *****    0.197682
   25   C25        5.481484660    -0.680038311    -0.007994577     C.2   1  *****   -0.174134
   26   C26        4.229051142    -0.882861314     0.537998089     C.2   1  *****   -0.306563
   27   N27        2.927628259     1.819853574    -1.547494533       N   1  *****    0.952768
   28   N28       -1.604947129     2.429509275    -1.653482446       N   1  *****    0.954322
   29   N29        1.503573752     2.099644496     2.662503242       N   1  *****    0.925004
   30   O30        2.909532780     2.010435034    -0.277550776       O   1  *****   -0.624668
   31   O31        1.785354637     1.615248566    -2.082332741       O   1  *****   -0.622400
   32   O32       -1.362806514     1.174592700    -1.520037941       O   1  *****   -0.610476
   33   O33       -0.749937262     3.219690633    -1.143936894       O   1  *****   -0.582889
   34   O34        1.484030019     0.895526195     2.208104152       O   1  *****   -0.634904
   35   O35        1.058514007     2.992762168     1.866456671       O   1  *****   -0.571959
   36   O36        3.955696244     1.832805757    -2.185662538       O   1  *****   -0.431505
   37   O37       -2.612221096     2.824443902    -2.208589040       O   1  *****   -0.446739
   38   O38        1.912387061     2.357891712     3.770713497       O   1  *****   -0.422339
   39   Nd39       0.549933828     1.489390415     0.024225000      Nd   1  *****    1.931046
   40   N40       -7.527231936    -2.240993818    -1.420672352     N.3   1  *****    0.111278
   41   C41       -8.765911282    -2.546280217    -0.741378600     C.3   1  *****   -0.530100
   42   C42       -7.365679529    -2.623965065    -2.806196610     C.3   1  *****   -0.525709
   43   N43        7.450257935    -1.528203274    -1.144128913     N.3   1  *****    0.034417
   44   C44        8.087793079    -2.587646384    -1.889971113     C.3   1  *****   -0.489988
   45   C45        7.926624418    -0.170270592    -1.314002292     C.3   1  *****   -0.499279
   46   H46       -2.667947784    -3.718156820     2.029039644       H   1  *****    0.111583
   47   H47       -3.833162672    -1.529337090     1.865230761       H   1  *****    0.146022
   48   H48       -0.258787897    -3.873318344     1.450853901       H   1  *****    0.192658
   49   H49        2.114552374    -4.294702023     1.872476076       H   1  *****    0.196964
   50   H50        1.370992462    -2.968867360     2.807481530       H   1  *****    0.214908
   51   H51        3.127858135    -3.141513570     2.759653904       H   1  *****    0.220282
   52   H52       -3.955678849     3.101036434    -0.028503860       H   1  *****    0.215544
   53   H53       -3.565404341     3.193773182     1.703724252       H   1  *****    0.242138
   54   H54       -5.222372477     2.761171692     1.181878550       H   1  *****    0.196827
   55   H55       -3.675201284     0.227304486    -1.488324390       H   1  *****    0.149632
   56   H56       -5.281431614    -1.290460801    -2.541754347       H   1  *****    0.173745
   57   H57       -7.702791302    -1.169028629     1.029968061       H   1  *****    0.163010
   58   H58       -6.067967899     0.329362805     2.063194466       H   1  *****    0.146356
   59   H59        3.879098035    -4.189955572    -0.128048232       H   1  *****    0.167471
   60   H60        6.104035885    -3.857205180    -1.061105389       H   1  *****    0.150534
   61   H61        5.882638118     0.324062682     0.005465940       H   1  *****    0.154641
   62   H62        3.696686645    -0.045757074     0.971477267       H   1  *****    0.197407
   63   H63       -9.348351968    -3.236256587    -1.351594591       H   1  *****    0.197145
   64   H64       -9.378446330    -1.651381691    -0.559866345       H   1  *****    0.169672
   65   H65       -8.584186324    -3.031846996     0.225221962       H   1  *****    0.150858
   66   H66       -8.163083153    -3.313928632    -3.082046739       H   1  *****    0.194280
   67   H67       -7.407358234    -1.762633009    -3.487690976       H   1  *****    0.172617
   68   H68       -6.411057528    -3.137470780    -2.969563852       H   1  *****    0.151020
   69   H69        9.075674127    -2.255270284    -2.209806608       H   1  *****    0.188842
   70   H70        8.226389727    -3.479467596    -1.268315716       H   1  *****    0.142055
   71   H71        7.517688979    -2.882381695    -2.784224441       H   1  *****    0.161214
   72   H72        8.905437799    -0.194368396    -1.793308127       H   1  *****    0.187095
   73   H73        8.042401066     0.331267376    -0.346757006       H   1  *****    0.146792
   74   H74        7.250512458     0.436825102    -1.931575294       H   1  *****    0.186089


@<TRIPOS>BOND
    1      1      2    2
    2      1      6    1
    3      2      3    1
    4      3      4    2
    5      4      5    1
    6      5      6    2
    7      5      7    1
    8      3      8    1
    9      7      9    2
   10      8     10    2
   11      7     11    1
   12     11     12    1
   13     11     13    1
   14      8     14    1
   15     14     15    1
   16     14     16    1
   17     15     17    2
   18     15     21    1
   19     17     18    1
   20     18     19    2
   21     19     20    1
   22     20     21    2
   23     12     22    2
   24     12     26    1
   25     22     23    1
   26     23     24    2
   27     24     25    1
   28     25     26    2
   29     27     30    2
   30     27     31    2
   31     28     32    2
   32     28     33    2
   33     29     34    2
   34     29     35    2
   35     27     36    1
   36     28     37    1
   37     29     38    1
   38      4     39    1
   39     10     39    1
   40     30     39    1
   41     31     39    1
   42     32     39    1
   43     33     39    1
   44     34     39    1
   45     35     39    1
   46      9     39    1
   47     40     41    1
   48     40     42    1
   49     19     40    1
   50     43     44    1
   51     43     45    1
   52     24     43    1
   53      1     46    1
   54      2     47    1
   55      6     48    1
   56     13     49    1
   57     13     50    1
   58     13     51    1
   59     16     52    1
   60     16     53    1
   61     16     54    1
   62     17     55    1
   63     18     56    1
   64     20     57    1
   65     21     58    1
   66     22     59    1
   67     23     60    1
   68     25     61    1
   69     26     62    1
   70     41     63    1
   71     41     64    1
   72     41     65    1
   73     42     66    1
   74     42     67    1
   75     42     68    1
   76     44     69    1
   77     44     70    1
   78     44     71    1
   79     45     72    1
   80     45     73    1
   81     45     74    1
#
#	File Created by: Spartan '14 Export
#

@<TRIPOS>MOLECULE
*****
62 69
SMALL
USER_CHARGES


@<TRIPOS>ATOM
    1   C1        -1.972593947    -2.899416030     1.724784224     C.2   1  *****    0.153174
    2   C2        -2.677695378    -1.705922644     1.638725560     C.2   1  *****   -0.360665
    3   C3        -2.000863382    -0.572254027     1.189406271     C.2   1  *****    0.401909
    4   N4        -0.711943719    -0.619312980     0.865259394       N   1  *****   -0.605551
    5   C5        -0.016136656    -1.750723161     0.975850888     C.2   1  *****    0.572611
    6   C6        -0.622102462    -2.933635836     1.390335415     C.2   1  *****   -0.437880
    7   C7         1.397776927    -1.550030366     0.488350125     C.2   1  *****    0.245398
    8   C8        -2.530390529     0.839802639     1.114290381     C.2   1  *****    0.413747
    9   O9         1.546464733    -0.684926332    -0.388768062       O   1  *****   -0.515628
   10   O10       -1.706419723     1.753198375     1.254988419       O   1  *****   -0.545679
   11   N11        2.432953969    -2.255974415     0.979270643     N.3   1  *****   -0.026232
   12   C12        3.740128161    -2.050413462     0.415742172     C.2   1  *****    0.400200
   13   C13        2.363285130    -3.118823485     2.158238457     C.3   1  *****   -0.620174
   14   N14       -3.847503430     1.090863643     0.961279367     N.3   1  *****   -0.172621
   15   C15       -4.744491494     0.163119798     0.349367185     C.2   1  *****    0.400490
   16   C16       -4.265659491     2.499756911     0.991677608     C.3   1  *****   -0.559097
   17   C17       -5.927528038    -0.180559107     1.007134189     C.2   1  *****   -0.228423
   18   C18       -6.813083154    -1.066216311     0.413014909     C.2   1  *****   -0.131883
   19   C19       -6.493350221    -1.588742229    -0.834540248     C.2   1  *****   -0.043969
   20   C20       -5.333134953    -1.239767243    -1.511690252     C.2   1  *****   -0.135375
   21   C21       -4.452300937    -0.345564318    -0.917908241     C.2   1  *****   -0.203965
   22   C22        4.289024061    -0.771485391     0.341912257     C.2   1  *****   -0.268950
   23   C23        5.554997775    -0.604505372    -0.201220322     C.2   1  *****   -0.058801
   24   C24        6.255009181    -1.723992417    -0.629398656     C.2   1  *****   -0.060486
   25   C25        5.726855322    -3.004988382    -0.546953808     C.2   1  *****   -0.069672
   26   C26        4.453259173    -3.165146667    -0.022578601     C.2   1  *****   -0.322037
   27   N27        2.824558343     1.831411171    -1.664935071       N   1  *****    0.927178
   28   N28       -1.779630862     2.299351061    -1.657431411       N   1  *****    0.949846
   29   N29        1.478603090     2.131906660     2.566780770       N   1  *****    0.922999
   30   O30        2.833349747     2.031849995    -0.393330711       O   1  *****   -0.616624
   31   O31        1.664527363     1.651471132    -2.172980781       O   1  *****   -0.616387
   32   O32       -1.453143915     1.061647910    -1.517975102       O   1  *****   -0.610531
   33   O33       -0.953099327     3.146287980    -1.196751648       O   1  *****   -0.571560
   34   O34        1.487895022     0.931455754     2.097743919       O   1  *****   -0.642595
   35   O35        0.987525198     3.017340438     1.787504625       O   1  *****   -0.569860
   36   O36        3.838552147     1.806132239    -2.318820911       O   1  *****   -0.396333
   37   O37       -2.834660614     2.619762675    -2.167309169       O   1  *****   -0.434596
   38   O38        1.901683606     2.391155172     3.666973367       O   1  *****   -0.407374
   39   Nd39       0.489960711     1.520765550    -0.051698636      Nd   1  *****    1.923645
   40   N40       -7.419924383    -2.540820730    -1.457441226       N   1  *****    0.733794
   41   O41       -7.103050738    -3.009628052    -2.543279694     O.2   1  *****   -0.400571
   42   O42       -8.447864495    -2.809586201    -0.846782035     O.2   1  *****   -0.403189
   43   N43        7.600396330    -1.555258581    -1.188507829       N   1  *****    0.721541
   44   O44        8.060660260    -0.422138224    -1.226085038     O.2   1  *****   -0.390047
   45   O45        8.180137749    -2.563849001    -1.577262859     O.2   1  *****   -0.410571
   46   H46       -2.473293152    -3.803783271     2.052612473       H   1  *****    0.119854
   47   H47       -3.725265177    -1.661407816     1.905100758       H   1  *****    0.144660
   48   H48       -0.070006776    -3.863121822     1.437384832       H   1  *****    0.196993
   49   H49        2.244090848    -4.173541443     1.890479699       H   1  *****    0.197172
   50   H50        1.544227819    -2.810517994     2.806497288       H   1  *****    0.217731
   51   H51        3.293996782    -3.004717750     2.714267562       H   1  *****    0.223662
   52   H52       -4.069101884     2.970876229     0.024036988       H   1  *****    0.211767
   53   H53       -3.704137827     3.021374056     1.764503501       H   1  *****    0.244460
   54   H54       -5.333091718     2.538505900     1.207315296       H   1  *****    0.197464
   55   H55       -6.139887368     0.237470021     1.985288770       H   1  *****    0.154375
   56   H56       -7.734973836    -1.363888824     0.894804074       H   1  *****    0.162843
   57   H57       -5.141934506    -1.656024486    -2.492191455       H   1  *****    0.171796
   58   H58       -3.555714335    -0.015049188    -1.434223841       H   1  *****    0.150337
   59   H59        3.732316905     0.090678816     0.684280225       H   1  *****    0.200642
   60   H60        5.992580526     0.380169534    -0.299384171       H   1  *****    0.151841
   61   H61        6.308416748    -3.845883494    -0.900521794       H   1  *****    0.149685
   62   H62        4.009723036    -4.153501488     0.030339051       H   1  *****    0.175512


@<TRIPOS>BOND
    1      1      2    2
    2      1      6    1
    3      2      3    1
    4      3      4    2
    5      4      5    1
    6      5      6    2
    7      5      7    1
    8      3      8    1
    9      7      9    2
   10      8     10    2
   11      7     11    1
   12     11     12    1
   13     11     13    1
   14      8     14    1
   15     14     15    1
   16     14     16    1
   17     15     17    2
   18     15     21    1
   19     17     18    1
   20     18     19    2
   21     19     20    1
   22     20     21    2
   23     12     22    2
   24     12     26    1
   25     22     23    1
   26     23     24    2
   27     24     25    1
   28     25     26    2
   29     27     30    2
   30     27     31    2
   31     28     32    2
   32     28     33    2
   33     29     34    2
   34     29     35    2
   35     27     36    1
   36     28     37    1
   37     29     38    1
   38      4     39    1
   39     10     39    1
   40     30     39    1
   41     31     39    1
   42     32     39    1
   43     33     39    1
   44     34     39    1
   45     35     39    1
   46      9     39    1
   47     40     41    2
   48     40     42    2
   49     19     40    1
   50     43     44    2
   51     43     45    2
   52     24     43    1
   53      1     46    1
   54      2     47    1
   55      6     48    1
   56     13     49    1
   57     13     50    1
   58     13     51    1
   59     16     52    1
   60     16     53    1
   61     16     54    1
   62     17     55    1
   63     18     56    1
   64     20     57    1
   65     21     58    1
   66     22     59    1
   67     23     60    1
   68     25     61    1
   69     26     62    1
#
#	File Created by: Spartan '14 Export
#

@<TRIPOS>MOLECULE
*****
58 65
SMALL
USER_CHARGES


@<TRIPOS>ATOM
    1   C1        -1.918007814    -3.208551038     0.235033569     C.2   1  *****    0.334478
    2   C2        -2.619212738    -2.045880340     0.528875349     C.2   1  *****   -0.370754
    3   C3        -1.904537137    -0.849867190     0.538518780     C.2   1  *****    0.371969
    4   N4        -0.598887875    -0.816878955     0.285539993       N   1  *****   -0.615084
    5   C5         0.080209610    -1.934558878     0.032807300     C.2   1  *****    0.582614
    6   C6        -0.549913448    -3.172760891    -0.019582281     C.2   1  *****   -0.469134
    7   C7         1.523423911    -1.620780617    -0.288300651     C.2   1  *****    0.262016
    8   C8        -2.412431848     0.516492744     0.940160433     C.2   1  *****    0.445271
    9   O9         1.718431339    -0.513900850    -0.817580046       O   1  *****   -0.526633
   10   O10       -1.572042267     1.300308299     1.407200049       O   1  *****   -0.562569
   11   N11        2.519079712    -2.477510454    -0.012680342     N.3   1  *****   -0.061631
   12   C12        3.864688103    -2.139644867    -0.407857266     C.2   1  *****    0.431473
   13   C13        2.374149925    -3.664169576     0.828976347     C.3   1  *****   -0.577469
   14   N14       -3.712870201     0.843245194     0.843143176     N.3   1  *****   -0.172878
   15   C15       -4.620235567     0.177649675    -0.045484231     C.2   1  *****    0.431124
   16   C16       -4.103268286     2.179509341     1.308041687     C.3   1  *****   -0.596219
   17   C17       -4.357670336     0.171809535    -1.414527801     C.2   1  *****   -0.234107
   18   C18       -5.254290691    -0.458130277    -2.272279051     C.2   1  *****   -0.111336
   19   C19       -6.404386218    -1.059313611    -1.770158431     C.2   1  *****   -0.137760
   20   C20       -6.669160294    -1.027747842    -0.402737951     C.2   1  *****   -0.114669
   21   C21       -5.778797109    -0.406247149     0.465104070     C.2   1  *****   -0.257253
   22   C22        4.593915252    -3.071158205    -1.141745848     C.2   1  *****   -0.360103
   23   C23        5.901578236    -2.776681032    -1.512287428     C.2   1  *****   -0.038658
   24   C24        6.467569512    -1.554988437    -1.161460975     C.2   1  *****   -0.176979
   25   C25        5.728526063    -0.631683943    -0.427838338     C.2   1  *****   -0.016533
   26   C26        4.427939347    -0.922871623    -0.034636654     C.2   1  *****   -0.311325
   27   N27        3.068656896     2.301453401    -1.117026717       N   1  *****    0.939826
   28   N28       -1.496989099     2.803654313    -1.174875166       N   1  *****    0.959361
   29   N29        1.533150497     1.137286906     2.909222825       N   1  *****    0.926036
   30   O30        3.022133775     2.049290960     0.143882121       O   1  *****   -0.622644
   31   O31        1.936399491     2.295762384    -1.711007661       O   1  *****   -0.620796
   32   O32       -1.206324243     1.575957518    -1.423603553       O   1  *****   -0.612082
   33   O33       -0.681583868     3.427862958    -0.426276350       O   1  *****   -0.581852
   34   O34        1.552730718     0.165672285     2.064663907       O   1  *****   -0.634134
   35   O35        1.090971256     2.246691163     2.455044682       O   1  *****   -0.575137
   36   O36        4.108414878     2.522459902    -1.690511767       O   1  *****   -0.410739
   37   O37       -2.511335108     3.313993655    -1.608501936       O   1  *****   -0.440979
   38   O38        1.903595209     1.000278093     4.050716578       O   1  *****   -0.416460
   39   Nd39       0.666928446     1.469100023     0.195596026      Nd   1  *****    1.935367
   40   Cl40      -2.751628827    -4.727664046     0.188585587      Cl   1  *****   -0.068985
   41   H41       -3.681258651    -2.077957410     0.728289875       H   1  *****    0.149154
   42   H42       -0.016205594    -4.081101452    -0.262349150       H   1  *****    0.203491
   43   H43        2.318025282    -4.582623387     0.235805336       H   1  *****    0.189100
   44   H44        1.491201931    -3.580626662     1.460072365       H   1  *****    0.202633
   45   H45        3.249216534    -3.724309895     1.476737569       H   1  *****    0.210958
   46   H46       -3.909562500     2.919528431     0.525070811       H   1  *****    0.217069
   47   H47       -3.522674046     2.434708771     2.192598562       H   1  *****    0.251484
   48   H48       -5.167716745     2.163711717     1.541029613       H   1  *****    0.202168
   49   H49       -3.471732627     0.674940785    -1.790971411       H   1  *****    0.140205
   50   H50       -5.055430377    -0.466262997    -3.338777291       H   1  *****    0.145563
   51   H51       -7.101621438    -1.545621583    -2.444450122       H   1  *****    0.137891
   52   H52       -7.569504758    -1.489016773    -0.010518604       H   1  *****    0.139017
   53   H53       -5.969567238    -0.377339192     1.533437548       H   1  *****    0.144350
   54   H54        4.139031994    -4.012315795    -1.433933818       H   1  *****    0.167640
   55   H55        6.471301083    -3.499742066    -2.086710188       H   1  *****    0.119887
   56   H56        7.482660569    -1.320648366    -1.464693474       H   1  *****    0.135805
   57   H57        6.151988319     0.331050279    -0.164134659       H   1  *****    0.124464
   58   H58        3.856241300    -0.202083443     0.534611870       H   1  *****    0.194489


@<TRIPOS>BOND
    1      1      2    2
    2      1      6    1
    3      2      3    1
    4      3      4    2
    5      4      5    1
    6      5      6    2
    7      5      7    1
    8      3      8    1
    9      7      9    2
   10      8     10    2
   11      7     11    1
   12     11     12    1
   13     11     13    1
   14      8     14    1
   15     14     15    1
   16     14     16    1
   17     15     17    2
   18     15     21    1
   19     17     18    1
   20     18     19    2
   21     19     20    1
   22     20     21    2
   23     12     22    2
   24     12     26    1
   25     22     23    1
   26     23     24    2
   27     24     25    1
   28     25     26    2
   29     27     30    2
   30     27     31    2
   31     28     32    2
   32     28     33    2
   33     29     34    2
   34     29     35    2
   35     27     36    1
   36     28     37    1
   37     29     38    1
   38      4     39    1
   39     10     39    1
   40     30     39    1
   41     31     39    1
   42     32     39    1
   43     33     39    1
   44     34     39    1
   45     35     39    1
   46      9     39    1
   47      1     40    1
   48      2     41    1
   49      6     42    1
   50     13     43    1
   51     13     44    1
   52     13     45    1
   53     16     46    1
   54     16     47    1
   55     16     48    1
   56     17     49    1
   57     18     50    1
   58     19     51    1
   59     20     52    1
   60     21     53    1
   61     22     54    1
   62     23     55    1
   63     24     56    1
   64     25     57    1
   65     26     58    1
#
#	File Created by: Spartan '14 Export
#

@<TRIPOS>MOLECULE
*****
58 65
SMALL
USER_CHARGES


@<TRIPOS>ATOM
    1   C1        -1.784125461    -3.426718176     0.359559055     C.2   1  *****    0.628334
    2   C2        -2.560420984    -2.310151779     0.620933200     C.2   1  *****   -0.534752
    3   C3        -1.917121727    -1.075946199     0.584657965     C.2   1  *****    0.401893
    4   N4        -0.616667080    -0.974023892     0.320441934       N   1  *****   -0.642398
    5   C5         0.128483841    -2.056677880     0.096666181     C.2   1  *****    0.599269
    6   C6        -0.425250655    -3.331533889     0.091667119     C.2   1  *****   -0.613013
    7   C7         1.546798629    -1.664082775    -0.247634180     C.2   1  *****    0.287366
    8   C8        -2.505860169     0.269373539     0.942629116     C.2   1  *****    0.475618
    9   O9         1.671422307    -0.557452846    -0.798226037       O   1  *****   -0.534297
   10   O10       -1.716738531     1.116066225     1.388591565       O   1  *****   -0.571354
   11   N11        2.596444886    -2.453867234     0.027464265     N.3   1  *****   -0.072918
   12   C12        3.912221688    -2.034971743    -0.389992643     C.2   1  *****    0.438337
   13   C13        2.538759309    -3.637298330     0.883290748     C.3   1  *****   -0.570103
   14   N14       -3.823225681     0.513101819     0.829965712     N.3   1  *****   -0.183349
   15   C15       -4.678362884    -0.231071060    -0.047868438     C.2   1  *****    0.419201
   16   C16       -4.298799578     1.834705242     1.255613722     C.3   1  *****   -0.580803
   17   C17       -4.399097364    -0.259409862    -1.413304008     C.2   1  *****   -0.230606
   18   C18       -5.241960097    -0.971321452    -2.261285183     C.2   1  *****   -0.106444
   19   C19       -6.357726691    -1.630313805    -1.754051679     C.2   1  *****   -0.136241
   20   C20       -6.642021305    -1.574965102    -0.391300619     C.2   1  *****   -0.100286
   21   C21       -5.803919714    -0.872673730     0.467130234     C.2   1  *****   -0.271998
   22   C22        4.681495650    -2.913780913    -1.147253065     C.2   1  *****   -0.361833
   23   C23        5.960691550    -2.536062906    -1.541531665     C.2   1  *****   -0.036748
   24   C24        6.457072049    -1.284620103    -1.190774492     C.2   1  *****   -0.179901
   25   C25        5.678450752    -0.414599476    -0.433329626     C.2   1  *****   -0.011304
   26   C26        4.407206097    -0.789130492    -0.016021821     C.2   1  *****   -0.316365
   27   N27        2.877185747     2.314974496    -1.128813581       N   1  *****    0.942368
   28   N28       -1.707315217     2.576707316    -1.220429361       N   1  *****    0.953623
   29   N29        1.395518347     1.136835483     2.904524614       N   1  *****    0.935778
   30   O30        2.834840637     2.079547588     0.135401512       O   1  *****   -0.623485
   31   O31        1.751504164     2.240854201    -1.729900617       O   1  *****   -0.621176
   32   O32       -1.355365047     1.360279560    -1.443172920       O   1  *****   -0.609425
   33   O33       -0.926089168     3.255431391    -0.482529214       O   1  *****   -0.581847
   34   O34        1.464574645     0.153583783     2.076349564       O   1  *****   -0.641551
   35   O35        0.896593259     2.214272690     2.432824474       O   1  *****   -0.577172
   36   O36        3.908408782     2.581614515    -1.698775178       O   1  *****   -0.412164
   37   O37       -2.743634040     3.027549519    -1.667562850       O   1  *****   -0.440615
   38   O38        1.772624477     1.037796256     4.047964813       O   1  *****   -0.420085
   39   Nd39       0.514669352     1.379146282     0.184695471      Nd   1  *****    1.939822
   40   F40       -2.352225246    -4.628410325     0.367935405       F   1  *****   -0.185149
   41   H41       -3.616792141    -2.415583324     0.825334917       H   1  *****    0.196728
   42   H42        0.144631171    -4.225367686    -0.122284052       H   1  *****    0.241984
   43   H43        2.521995726    -4.563523160     0.299594206       H   1  *****    0.185762
   44   H44        1.666582596    -3.598567790     1.533656727       H   1  *****    0.206390
   45   H45        3.430381682    -3.640745101     1.510788484       H   1  *****    0.208632
   46   H46       -4.147077029     2.563607342     0.453210114       H   1  *****    0.213954
   47   H47       -3.739740336     2.149852880     2.134621228       H   1  *****    0.246262
   48   H48       -5.361348790     1.758876844     1.485538209       H   1  *****    0.200636
   49   H49       -3.542597106     0.288687870    -1.795318258       H   1  *****    0.138906
   50   H50       -5.029104371    -0.998162843    -3.324791097       H   1  *****    0.144528
   51   H51       -7.013375408    -2.180409095    -2.421032939       H   1  *****    0.135862
   52   H52       -7.516273827    -2.081043806     0.004735645       H   1  *****    0.135617
   53   H53       -6.009460278    -0.824775276     1.532047794       H   1  *****    0.149593
   54   H54        4.278499695    -3.878529427    -1.439090693       H   1  *****    0.167711
   55   H55        6.561661209    -3.217310414    -2.134949945       H   1  *****    0.119521
   56   H56        7.448968418    -0.984988206    -1.512937413       H   1  *****    0.135748
   57   H57        6.047279522     0.570678175    -0.170700559       H   1  *****    0.123453
   58   H58        3.803562067    -0.109584630     0.571072108       H   1  *****    0.194486


@<TRIPOS>BOND
    1      1      2    2
    2      1      6    1
    3      2      3    1
    4      3      4    2
    5      4      5    1
    6      5      6    2
    7      5      7    1
    8      3      8    1
    9      7      9    2
   10      8     10    2
   11      7     11    1
   12     11     12    1
   13     11     13    1
   14      8     14    1
   15     14     15    1
   16     14     16    1
   17     15     17    2
   18     15     21    1
   19     17     18    1
   20     18     19    2
   21     19     20    1
   22     20     21    2
   23     12     22    2
   24     12     26    1
   25     22     23    1
   26     23     24    2
   27     24     25    1
   28     25     26    2
   29     27     30    2
   30     27     31    2
   31     28     32    2
   32     28     33    2
   33     29     34    2
   34     29     35    2
   35     27     36    1
   36     28     37    1
   37     29     38    1
   38      4     39    1
   39     10     39    1
   40     30     39    1
   41     31     39    1
   42     32     39    1
   43     33     39    1
   44     34     39    1
   45     35     39    1
   46      9     39    1
   47      1     40    1
   48      2     41    1
   49      6     42    1
   50     13     43    1
   51     13     44    1
   52     13     45    1
   53     16     46    1
   54     16     47    1
   55     16     48    1
   56     17     49    1
   57     18     50    1
   58     19     51    1
   59     20     52    1
   60     21     53    1
   61     22     54    1
   62     23     55    1
   63     24     56    1
   64     25     57    1
   65     26     58    1
#
#	File Created by: Spartan '14 Export
#

@<TRIPOS>MOLECULE
*****
59 66
SMALL
USER_CHARGES


@<TRIPOS>ATOM
    1   C1        -1.922233223    -3.280158791     0.298510612     C.2   1  *****    0.370945
    2   C2        -2.628131644    -2.108299125     0.577119518     C.2   1  *****   -0.421562
    3   C3        -1.925847880    -0.905436498     0.565162010     C.2   1  *****    0.397052
    4   N4        -0.621712227    -0.870466372     0.307939518       N   1  *****   -0.605883
    5   C5         0.072223857    -1.983440553     0.070859725     C.2   1  *****    0.590722
    6   C6        -0.547508361    -3.226332158     0.038882090     C.2   1  *****   -0.506759
    7   C7         1.510164396    -1.654428297    -0.261840736     C.2   1  *****    0.266249
    8   C8        -2.442651036     0.464679085     0.943017401     C.2   1  *****    0.442028
    9   O9         1.685649161    -0.550999222    -0.805180323       O   1  *****   -0.528136
   10   O10       -1.607118591     1.260708080     1.397336809       O   1  *****   -0.561497
   11   N11        2.518069039    -2.494095363     0.016694572     N.3   1  *****   -0.064638
   12   C12        3.856566902    -2.136031740    -0.386645988     C.2   1  *****    0.431097
   13   C13        2.395207005    -3.678704981     0.864945777     C.3   1  *****   -0.580569
   14   N14       -3.745054160     0.777518596     0.837464846     N.3   1  *****   -0.170617
   15   C15       -4.643511454     0.078262216    -0.034148804     C.2   1  *****    0.417056
   16   C16       -4.151792969     2.116546149     1.279686490     C.3   1  *****   -0.589577
   17   C17       -4.372137403     0.029583030    -1.400770620     C.2   1  *****   -0.224924
   18   C18       -5.253725624    -0.643184671    -2.241505022     C.2   1  *****   -0.114374
   19   C19       -6.397977438    -1.243827863    -1.725607723     C.2   1  *****   -0.133263
   20   C20       -6.672765000    -1.167855361    -0.361742484     C.2   1  *****   -0.093211
   21   C21       -5.797376348    -0.503740235     0.489587086     C.2   1  *****   -0.275364
   22   C22        4.592854859    -3.049899076    -1.135020465     C.2   1  *****   -0.358991
   23   C23        5.891932769    -2.730325495    -1.515464974     C.2   1  *****   -0.037514
   24   C24        6.440879855    -1.502193006    -1.160117300     C.2   1  *****   -0.179321
   25   C25        5.694532930    -0.597135788    -0.411325869     C.2   1  *****   -0.013804
   26   C26        4.403177038    -0.913695202    -0.007749878     C.2   1  *****   -0.316594
   27   N27        3.030496235     2.276405336    -1.123905509       N   1  *****    0.937021
   28   N28       -1.550766807     2.708855788    -1.215666584       N   1  *****    0.952633
   29   N29        1.482000360     1.120125118     2.904266694       N   1  *****    0.926913
   30   O30        2.978002794     2.037291016     0.139735051       O   1  *****   -0.622098
   31   O31        1.901649305     2.254458430    -1.724188480       O   1  *****   -0.618400
   32   O32       -1.240456567     1.480530268    -1.438047578       O   1  *****   -0.611319
   33   O33       -0.745769009     3.361106935    -0.479682260       O   1  *****   -0.579905
   34   O34        1.508279854     0.144608329     2.063200824       O   1  *****   -0.638478
   35   O35        1.041170511     2.226545751     2.442313672       O   1  *****   -0.574230
   36   O36        4.071644897     2.499667402    -1.693176298       O   1  *****   -0.407140
   37   O37       -2.572304655     3.193524038    -1.660672274       O   1  *****   -0.436949
   38   O38        1.845148416     0.987724418     4.048235311       O   1  *****   -0.413439
   39   Nd39       0.631434228     1.437560631     0.184139886      Nd   1  *****    1.935270
   40   C40       -2.600538395    -4.537650205     0.280834445     C.1   1  *****    0.190016
   41   N41       -3.145179803    -5.561967969     0.267923652     N.1   1  *****   -0.322772
   42   H42       -3.689087602    -2.145053238     0.781465775       H   1  *****    0.178855
   43   H43       -0.004450340    -4.132691058    -0.191930270       H   1  *****    0.227587
   44   H44        2.348098853    -4.600201946     0.275867208       H   1  *****    0.189742
   45   H45        1.516325999    -3.604682370     1.503163973       H   1  *****    0.204820
   46   H46        3.275603289    -3.723740000     1.506559523       H   1  *****    0.215149
   47   H47       -3.972231599     2.844007478     0.481725993       H   1  *****    0.216138
   48   H48       -3.570259563     2.395941368     2.156243162       H   1  *****    0.249986
   49   H49       -5.214686163     2.090363003     1.518512816       H   1  *****    0.204184
   50   H50       -3.491827148     0.533255142    -1.789477333       H   1  *****    0.137147
   51   H51       -5.047757834    -0.685619119    -3.305811184       H   1  *****    0.147073
   52   H52       -7.082730782    -1.765024989    -2.386332580       H   1  *****    0.137492
   53   H53       -7.568333573    -1.629403328     0.040716147       H   1  *****    0.135801
   54   H54       -5.995275402    -0.442281149     1.555254236       H   1  *****    0.150265
   55   H55        4.150301346    -3.995737383    -1.431058903       H   1  *****    0.169314
   56   H56        6.467924626    -3.438747507    -2.101673428       H   1  *****    0.121345
   57   H57        7.448644801    -1.248377051    -1.471899824       H   1  *****    0.137863
   58   H58        6.104378105     0.370647796    -0.144744520       H   1  *****    0.125294
   59   H59        3.824640347    -0.207801510     0.573265161       H   1  *****    0.196267


@<TRIPOS>BOND
    1      1      2    2
    2      1      6    1
    3      2      3    1
    4      3      4    2
    5      4      5    1
    6      5      6    2
    7      5      7    1
    8      3      8    1
    9      7      9    2
   10      8     10    2
   11      7     11    1
   12     11     12    1
   13     11     13    1
   14      8     14    1
   15     14     15    1
   16     14     16    1
   17     15     17    2
   18     15     21    1
   19     17     18    1
   20     18     19    2
   21     19     20    1
   22     20     21    2
   23     12     22    2
   24     12     26    1
   25     22     23    1
   26     23     24    2
   27     24     25    1
   28     25     26    2
   29     27     30    2
   30     27     31    2
   31     28     32    2
   32     28     33    2
   33     29     34    2
   34     29     35    2
   35     27     36    1
   36     28     37    1
   37     29     38    1
   38      4     39    1
   39     10     39    1
   40     30     39    1
   41     31     39    1
   42     32     39    1
   43     33     39    1
   44     34     39    1
   45     35     39    1
   46      9     39    1
   47     40     41    3
   48      1     40    1
   49      2     42    1
   50      6     43    1
   51     13     44    1
   52     13     45    1
   53     13     46    1
   54     16     47    1
   55     16     48    1
   56     16     49    1
   57     17     50    1
   58     18     51    1
   59     19     52    1
   60     20     53    1
   61     21     54    1
   62     22     55    1
   63     23     56    1
   64     24     57    1
   65     25     58    1
   66     26     59    1
#
#	File Created by: Spartan '14 Export
#

@<TRIPOS>MOLECULE
*****
62 69
SMALL
USER_CHARGES


@<TRIPOS>ATOM
    1   C1        -1.876704773    -3.255235769     0.346951445     C.2   1  *****    0.716438
    2   C2        -2.586935402    -2.079075029     0.617121188     C.2   1  *****   -0.621498
    3   C3        -1.905061762    -0.875669560     0.583319893     C.2   1  *****    0.451549
    4   N4        -0.598121396    -0.815065443     0.313328209       N   1  *****   -0.665170
    5   C5         0.093614825    -1.927682383     0.088228853     C.2   1  *****    0.562399
    6   C6        -0.504924474    -3.183513543     0.078856218     C.2   1  *****   -0.624669
    7   C7         1.528184596    -1.595457851    -0.253508998     C.2   1  *****    0.302609
    8   C8        -2.440205429     0.487459780     0.950740866     C.2   1  *****    0.465836
    9   O9         1.702101107    -0.502287409    -0.816958981       O   1  *****   -0.531109
   10   O10       -1.616842493     1.304295637     1.393267893       O   1  *****   -0.574269
   11   N11        2.547078632    -2.421311019     0.040172890     N.3   1  *****   -0.069133
   12   C12        3.880285972    -2.057544790    -0.373193516     C.2   1  *****    0.414760
   13   C13        2.444980291    -3.571120401     0.935515380     C.3   1  *****   -0.570069
   14   N14       -3.748203947     0.786033238     0.850547876     N.3   1  *****   -0.181591
   15   C15       -4.643063218     0.087371075    -0.025342525     C.2   1  *****    0.442834
   16   C16       -4.163163544     2.125461172     1.282930028     C.3   1  *****   -0.603951
   17   C17       -4.387682651     0.073647197    -1.395604961     C.2   1  *****   -0.245220
   18   C18       -5.274258936    -0.583977851    -2.242624202     C.2   1  *****   -0.098832
   19   C19       -6.408576038    -1.205313613    -1.729058546     C.2   1  *****   -0.138152
   20   C20       -6.666847086    -1.166236896    -0.360761628     C.2   1  *****   -0.113789
   21   C21       -5.785821404    -0.516801915     0.496188082     C.2   1  *****   -0.268979
   22   C22        4.623036240    -2.976374021    -1.109054384     C.2   1  *****   -0.349758
   23   C23        5.918969284    -2.653329288    -1.497519224     C.2   1  *****   -0.044110
   24   C24        6.458892364    -1.415442051    -1.162975228     C.2   1  *****   -0.175962
   25   C25        5.706448040    -0.504708541    -0.427112878     C.2   1  *****   -0.020757
   26   C26        4.418653488    -0.825113825    -0.015265590     C.2   1  *****   -0.302832
   27   N27        1.523478818     1.233013935     2.877875063       N   1  *****    0.928016
   28   N28       -1.572798573     2.776726363    -1.214073302       N   1  *****    0.956855
   29   N29        2.983793052     2.326003138    -1.184675608       N   1  *****    0.941574
   30   O30        1.554720858     0.241733029     2.057812869       O   1  *****   -0.636119
   31   O31        1.045713443     2.319330336     2.405269250       O   1  *****   -0.574971
   32   O32       -1.274472005     1.547814734    -1.444969755       O   1  *****   -0.609738
   33   O33       -0.759436019     3.418303738    -0.477912147       O   1  *****   -0.583846
   34   O34        2.952847585     2.102687620     0.081465995       O   1  *****   -0.624782
   35   O35        1.847954778     2.283898253    -1.769446283       O   1  *****   -0.622017
   36   O36        1.915425087     1.133523746     4.016897026       O   1  *****   -0.421137
   37   O37       -2.591832595     3.273940689    -1.652751849       O   1  *****   -0.443445
   38   O38        4.014957945     2.554404543    -1.772139735       O   1  *****   -0.414637
   39   Nd39       0.606586274     1.477655833     0.167856431      Nd   1  *****    1.940410
   40   O40       -2.589199254    -4.388691633     0.371901445     O.3   1  *****   -0.266550
   41   C41       -1.931172408    -5.619372118     0.113323125     C.3   1  *****   -0.387235
   42   H42       -3.645516892    -2.142065076     0.827790376       H   1  *****    0.196860
   43   H43        0.070026280    -4.070083514    -0.145856829       H   1  *****    0.220349
   44   H44        2.425181412    -4.517572077     0.384775773       H   1  *****    0.177068
   45   H45        1.556798005    -3.491503760     1.559615614       H   1  *****    0.203983
   46   H46        3.320260935    -3.569835344     1.586154205       H   1  *****    0.209595
   47   H47       -3.986954460     2.850436971     0.481792247       H   1  *****    0.218193
   48   H48       -3.584238763     2.413792534     2.158288084       H   1  *****    0.252814
   49   H49       -5.226262230     2.094888218     1.521176254       H   1  *****    0.201793
   50   H50       -3.513662765     0.590684617    -1.781090327       H   1  *****    0.139985
   51   H51       -5.080359304    -0.598076075    -3.310058334       H   1  *****    0.141031
   52   H52       -7.098614913    -1.712918938    -2.395166017       H   1  *****    0.134380
   53   H53       -7.554971695    -1.643155292     0.040768281       H   1  *****    0.137363
   54   H54       -5.971410198    -0.481526474     1.565237449       H   1  *****    0.148323
   55   H55        4.186560677    -3.929989372    -1.389320532       H   1  *****    0.163718
   56   H56        6.499317226    -3.366408482    -2.073931168       H   1  *****    0.119203
   57   H57        7.463862003    -1.158341347    -1.481328596       H   1  *****    0.135321
   58   H58        6.108494562     0.470905333    -0.177558203       H   1  *****    0.124752
   59   H59        3.835005152    -0.114141431     0.554379719       H   1  *****    0.195310
   60   H60       -2.700782718    -6.386217878     0.184151406       H   1  *****    0.208660
   61   H61       -1.152098665    -5.815015916     0.858020743       H   1  *****    0.165865
   62   H62       -1.495542833    -5.630778345    -0.891451485       H   1  *****    0.166478


@<TRIPOS>BOND
    1      1      2    2
    2      1      6    1
    3      2      3    1
    4      3      4    2
    5      4      5    1
    6      5      6    2
    7      5      7    1
    8      3      8    1
    9      7      9    2
   10      8     10    2
   11      7     11    1
   12     11     12    1
   13     11     13    1
   14      8     14    1
   15     14     15    1
   16     14     16    1
   17     15     17    2
   18     15     21    1
   19     17     18    1
   20     18     19    2
   21     19     20    1
   22     20     21    2
   23     12     22    2
   24     12     26    1
   25     22     23    1
   26     23     24    2
   27     24     25    1
   28     25     26    2
   29     27     30    2
   30     27     31    2
   31     28     32    2
   32     28     33    2
   33     29     34    2
   34     29     35    2
   35     27     36    1
   36     28     37    1
   37     29     38    1
   38      4     39    1
   39     10     39    1
   40     30     39    1
   41     31     39    1
   42     32     39    1
   43     33     39    1
   44     34     39    1
   45     35     39    1
   46      9     39    1
   47     40     41    1
   48      1     40    1
   49      2     42    1
   50      6     43    1
   51     13     44    1
   52     13     45    1
   53     13     46    1
   54     16     47    1
   55     16     48    1
   56     16     49    1
   57     17     50    1
   58     18     51    1
   59     19     52    1
   60     20     53    1
   61     21     54    1
   62     22     55    1
   63     23     56    1
   64     24     57    1
   65     25     58    1
   66     26     59    1
   67     41     60    1
   68     41     61    1
   69     41     62    1
#
#	File Created by: Spartan '14 Export
#

@<TRIPOS>MOLECULE
*****
63 70
SMALL
USER_CHARGES


@<TRIPOS>ATOM
    1   C1        -2.093046642    -2.996522410     0.240353864     C.2   1  *****    0.181285
    2   C2        -2.679289337    -1.772759083     0.548340382     C.2   1  *****   -0.370916
    3   C3        -1.876362337    -0.631091413     0.552838053     C.2   1  *****    0.377399
    4   N4        -0.575823898    -0.703015182     0.292374748       N   1  *****   -0.583841
    5   C5         0.011786721    -1.873574928     0.033070806     C.2   1  *****    0.559647
    6   C6        -0.722236456    -3.049813526    -0.022120148     C.2   1  *****   -0.428940
    7   C7         1.472896250    -1.671678500    -0.283541912     C.2   1  *****    0.275447
    8   C8        -2.278160272     0.774524360     0.935324578     C.2   1  *****    0.432840
    9   O9         1.765175961    -0.575743117    -0.792869791       O   1  *****   -0.537081
   10   O10       -1.383073517     1.507811997     1.380171241       O   1  *****   -0.554491
   11   N11        2.397854917    -2.603889884    -0.014832581     N.3   1  *****   -0.061859
   12   C12        3.771877235    -2.321412074    -0.352413044     C.2   1  *****    0.443607
   13   C13        2.156504232    -3.822585763     0.755204758     C.3   1  *****   -0.583551
   14   N14       -3.555325918     1.190535778     0.841407510     N.3   1  *****   -0.185060
   15   C15       -4.515332237     0.570920523    -0.022377716     C.2   1  *****    0.429534
   16   C16       -3.847708086     2.558853026     1.284837136     C.3   1  *****   -0.581632
   17   C17       -4.254497569     0.478007893    -1.389038557     C.2   1  *****   -0.209127
   18   C18       -5.196964618    -0.120865281    -2.219681512     C.2   1  *****   -0.125705
   19   C19       -6.392324387    -0.604285056    -1.695446236     C.2   1  *****   -0.137374
   20   C20       -6.655368383    -0.483540116    -0.332038671     C.2   1  *****   -0.093311
   21   C21       -5.717862120     0.105326406     0.509052782     C.2   1  *****   -0.283523
   22   C22        4.435960959    -3.171929605    -1.229751860     C.2   1  *****   -0.354652
   23   C23        5.770715751    -2.927460338    -1.535516810     C.2   1  *****   -0.035416
   24   C24        6.425361485    -1.836198392    -0.973308160     C.2   1  *****   -0.179412
   25   C25        5.748578142    -0.991329087    -0.097947262     C.2   1  *****   -0.017329
   26   C26        4.419606828    -1.233644567     0.226338579     C.2   1  *****   -0.329073
   27   N27        1.719093095     1.207713926     2.858595346       N   1  *****    0.920625
   28   N28       -1.256748703     2.895586680    -1.254260942       N   1  *****    0.954610
   29   N29        3.251716502     2.205903056    -1.248390272       N   1  *****    0.939636
   30   O30        1.685126925     0.208939283     2.045279630       O   1  *****   -0.643574
   31   O31        1.330184869     2.321788402     2.371286596       O   1  *****   -0.571069
   32   O32       -1.029545900     1.648140265    -1.468798153       O   1  *****   -0.606766
   33   O33       -0.407086163     3.500285229    -0.530254755       O   1  *****   -0.579184
   34   O34        3.222601796     1.995311017     0.019643777       O   1  *****   -0.621190
   35   O35        2.109433221     2.183950597    -1.826559995       O   1  *****   -0.623734
   36   O36        2.089931255     1.088023698     4.002163436       O   1  *****   -0.413249
   37   O37       -2.250207568     3.441444248    -1.695218624       O   1  *****   -0.442864
   38   O38        4.281319850     2.408758129    -1.845084789       O   1  *****   -0.409711
   39   Nd39       0.857880800     1.491964163     0.134976092      Nd   1  *****    1.930342
   40   C40       -2.872046620    -4.283739671     0.165995791     C.2   1  *****    0.593186
   41   C41       -4.352993935    -4.250908661     0.433530193     C.3   1  *****   -0.714226
   42   O42       -2.287857030    -5.312921530    -0.108479805     O.2   1  *****   -0.430328
   43   H43       -3.736080562    -1.699224248     0.762853217       H   1  *****    0.139999
   44   H44       -0.285968093    -4.007303080    -0.275190027       H   1  *****    0.187465
   45   H45        1.998249994    -4.691033566     0.107712121       H   1  *****    0.196193
   46   H46        1.297696965    -3.697682929     1.413241224       H   1  *****    0.205859
   47   H47        3.035688261    -4.005778116     1.372929920       H   1  *****    0.207522
   48   H48       -3.600197455     3.272261424     0.492277587       H   1  *****    0.214774
   49   H49       -3.251077163     2.784303341     2.166922221       H   1  *****    0.247818
   50   H50       -4.910709877     2.624834627     1.515938131       H   1  *****    0.200855
   51   H51       -3.331668797     0.891076791    -1.785857505       H   1  *****    0.133260
   52   H52       -4.998807419    -0.194476718    -3.283857073       H   1  *****    0.149913
   53   H53       -7.126716678    -1.062520053    -2.349789515       H   1  *****    0.136001
   54   H54       -7.592069609    -0.847690024     0.077258791       H   1  *****    0.131503
   55   H55       -5.906886787     0.198879598     1.574051570       H   1  *****    0.151008
   56   H56        3.909668509    -4.007588578    -1.680116252       H   1  *****    0.167149
   57   H57        6.293058864    -3.584729825    -2.222791536       H   1  *****    0.120668
   58   H58        7.462770081    -1.639138978    -1.222774708       H   1  *****    0.136515
   59   H59        6.249223539    -0.130629651     0.331483775       H   1  *****    0.126703
   60   H60        3.885244851    -0.579907154     0.905146450       H   1  *****    0.200961
   61   H61       -4.755716578    -5.254682677     0.302887696       H   1  *****    0.217355
   62   H62       -4.555066961    -3.911112809     1.455535616       H   1  *****    0.204006
   63   H63       -4.863135126    -3.558273045    -0.244529010       H   1  *****    0.194502


@<TRIPOS>BOND
    1      1      2    2
    2      1      6    1
    3      2      3    1
    4      3      4    2
    5      4      5    1
    6      5      6    2
    7      5      7    1
    8      3      8    1
    9      7      9    2
   10      8     10    2
   11      7     11    1
   12     11     12    1
   13     11     13    1
   14      8     14    1
   15     14     15    1
   16     14     16    1
   17     15     17    2
   18     15     21    1
   19     17     18    1
   20     18     19    2
   21     19     20    1
   22     20     21    2
   23     12     22    2
   24     12     26    1
   25     22     23    1
   26     23     24    2
   27     24     25    1
   28     25     26    2
   29     27     30    2
   30     27     31    2
   31     28     32    2
   32     28     33    2
   33     29     34    2
   34     29     35    2
   35     27     36    1
   36     28     37    1
   37     29     38    1
   38      4     39    1
   39     10     39    1
   40     30     39    1
   41     31     39    1
   42     32     39    1
   43     33     39    1
   44     34     39    1
   45     35     39    1
   46      9     39    1
   47     40     41    1
   48     40     42    2
   49      1     40    1
   50      2     43    1
   51      6     44    1
   52     13     45    1
   53     13     46    1
   54     13     47    1
   55     16     48    1
   56     16     49    1
   57     16     50    1
   58     17     51    1
   59     18     52    1
   60     19     53    1
   61     20     54    1
   62     21     55    1
   63     22     56    1
   64     23     57    1
   65     24     58    1
   66     25     59    1
   67     26     60    1
   68     41     61    1
   69     41     62    1
   70     41     63    1
#
#	File Created by: Spartan '14 Export
#

@<TRIPOS>MOLECULE
*****
66 73
SMALL
USER_CHARGES


@<TRIPOS>ATOM
    1   C1        -2.087702200    -2.997978428     0.215222734     C.2   1  *****    0.434323
    2   C2        -2.652418525    -1.746323287     0.549068832     C.2   1  *****   -0.512466
    3   C3        -1.850593706    -0.620194219     0.554520791     C.2   1  *****    0.402329
    4   N4        -0.544460321    -0.668668531     0.285633313       N   1  *****   -0.654024
    5   C5         0.024891823    -1.847151826     0.028266001     C.2   1  *****    0.588395
    6   C6        -0.694819649    -3.026726281    -0.034874538     C.2   1  *****   -0.596300
    7   C7         1.488866092    -1.657178298    -0.283904619     C.2   1  *****    0.263601
    8   C8        -2.261163015     0.778292593     0.951260996     C.2   1  *****    0.435358
    9   O9         1.790043358    -0.577282201    -0.818958885       O   1  *****   -0.525752
   10   O10       -1.367511044     1.519050962     1.389127002       O   1  *****   -0.554157
   11   N11        2.417090339    -2.581208523     0.016436837     N.3   1  *****   -0.054749
   12   C12        3.791280866    -2.303035267    -0.323550800     C.2   1  *****    0.435937
   13   C13        2.192793856    -3.748847719     0.862957223     C.3   1  *****   -0.598413
   14   N14       -3.542338678     1.192328444     0.879736261     N.3   1  *****   -0.178597
   15   C15       -4.514470427     0.591513328     0.016306626     C.2   1  *****    0.439574
   16   C16       -3.828384353     2.557923256     1.334732508     C.3   1  *****   -0.592943
   17   C17       -4.282729582     0.547554513    -1.357758261     C.2   1  *****   -0.225019
   18   C18       -5.241767753    -0.022796147    -2.188884993     C.2   1  *****   -0.107498
   19   C19       -6.425217143    -0.527988118    -1.657355167     C.2   1  *****   -0.160483
   20   C20       -6.659057136    -0.457537788    -0.285358609     C.2   1  *****   -0.074913
   21   C21       -5.704562076     0.104354013     0.555504415     C.2   1  *****   -0.296037
   22   C22        4.455730831    -3.164852337    -1.189426403     C.2   1  *****   -0.347584
   23   C23        5.791941328    -2.928370148    -1.495549968     C.2   1  *****   -0.042065
   24   C24        6.448136271    -1.832762893    -0.944103396     C.2   1  *****   -0.176505
   25   C25        5.771107066    -0.975548577    -0.080781677     C.2   1  *****   -0.028783
   26   C26        4.440439455    -1.209691207     0.242987112     C.2   1  *****   -0.313553
   27   N27        1.800516734     1.259342584     2.819510992       N   1  *****    0.910005
   28   N28       -1.257224877     2.966099597    -1.220964182       N   1  *****    0.950058
   29   N29        3.201400971     2.205842884    -1.345935717       N   1  *****    0.943670
   30   O30        1.757584495     0.249333507     2.022143775       O   1  *****   -0.630263
   31   O31        1.373840745     2.359409901     2.333065183       O   1  *****   -0.568267
   32   O32       -1.062322929     1.718209447    -1.457486714       O   1  *****   -0.598234
   33   O33       -0.384255832     3.540072734    -0.499178814       O   1  *****   -0.581027
   34   O34        3.209691767     2.016762147    -0.075210317       O   1  *****   -0.624070
   35   O35        2.046357942     2.154957265    -1.894919447       O   1  *****   -0.628482
   36   O36        2.211308596     1.161652993     3.952736633       O   1  *****   -0.418763
   37   O37       -2.243336065     3.542862147    -1.640183440       O   1  *****   -0.446739
   38   O38        4.212345321     2.416490180    -1.973472955       O   1  *****   -0.416256
   39   Nd39       0.846879413     1.493764386     0.115136221      Nd   1  *****    1.930652
   40   N40       -2.849346647    -4.120323209     0.136837025     N.3   1  *****    0.144766
   41   C41       -2.231743349    -5.397818543    -0.158228398     C.3   1  *****   -0.584335
   42   C42       -4.278879560    -4.048891532     0.379556903     C.3   1  *****   -0.569944
   43   H43       -3.703053977    -1.658713153     0.775396574       H   1  *****    0.164773
   44   H44       -0.200850569    -3.950789174    -0.296656486       H   1  *****    0.218377
   45   H45        2.135784958    -4.672095110     0.276185614       H   1  *****    0.184755
   46   H46        1.281318952    -3.630249859     1.445956670       H   1  *****    0.207440
   47   H47        3.033344541    -3.831324464     1.553484583       H   1  *****    0.208558
   48   H48       -3.597731433     3.276582027     0.541618738       H   1  *****    0.216590
   49   H49       -3.215542334     2.781141608     2.206136414       H   1  *****    0.248322
   50   H50       -4.886931610     2.620911307     1.586945316       H   1  *****    0.199358
   51   H51       -3.366227149     0.972103654    -1.757459249       H   1  *****    0.136414
   52   H52       -5.066133381    -0.058077711    -3.259051345       H   1  *****    0.143533
   53   H53       -7.172907637    -0.963405507    -2.312519144       H   1  *****    0.135384
   54   H54       -7.586641197    -0.837610633     0.130594908       H   1  *****    0.123826
   55   H55       -5.870502402     0.161319191     1.626977707       H   1  *****    0.150321
   56   H56        3.926918973    -4.003693939    -1.631111009       H   1  *****    0.160084
   57   H57        6.314091618    -3.594603626    -2.174410234       H   1  *****    0.119491
   58   H58        7.486724390    -1.641258115    -1.193293751       H   1  *****    0.135060
   59   H59        6.273419393    -0.110861530     0.338756627       H   1  *****    0.128230
   60   H60        3.904209927    -0.545615257     0.910626021       H   1  *****    0.198881
   61   H61       -2.995350443    -6.173912708    -0.154206416       H   1  *****    0.218744
   62   H62       -1.754853395    -5.397130931    -1.145927267       H   1  *****    0.180636
   63   H63       -1.476256348    -5.664615594     0.590818626       H   1  *****    0.180132
   64   H64       -4.722051861    -5.023715349     0.181426923       H   1  *****    0.210838
   65   H65       -4.759585214    -3.317410984    -0.279490659       H   1  *****    0.176952
   66   H66       -4.502836732    -3.776288441     1.418337388       H   1  *****    0.180853


@<TRIPOS>BOND
    1      1      2    2
    2      1      6    1
    3      2      3    1
    4      3      4    2
    5      4      5    1
    6      5      6    2
    7      5      7    1
    8      3      8    1
    9      7      9    2
   10      8     10    2
   11      7     11    1
   12     11     12    1
   13     11     13    1
   14      8     14    1
   15     14     15    1
   16     14     16    1
   17     15     17    2
   18     15     21    1
   19     17     18    1
   20     18     19    2
   21     19     20    1
   22     20     21    2
   23     12     22    2
   24     12     26    1
   25     22     23    1
   26     23     24    2
   27     24     25    1
   28     25     26    2
   29     27     30    2
   30     27     31    2
   31     28     32    2
   32     28     33    2
   33     29     34    2
   34     29     35    2
   35     27     36    1
   36     28     37    1
   37     29     38    1
   38      4     39    1
   39     10     39    1
   40     30     39    1
   41     31     39    1
   42     32     39    1
   43     33     39    1
   44     34     39    1
   45     35     39    1
   46      9     39    1
   47     40     41    1
   48     40     42    1
   49      1     40    1
   50      2     43    1
   51      6     44    1
   52     13     45    1
   53     13     46    1
   54     13     47    1
   55     16     48    1
   56     16     49    1
   57     16     50    1
   58     17     51    1
   59     18     52    1
   60     19     53    1
   61     20     54    1
   62     21     55    1
   63     22     56    1
   64     23     57    1
   65     24     58    1
   66     25     59    1
   67     26     60    1
   68     41     61    1
   69     41     62    1
   70     41     63    1
   71     42     64    1
   72     42     65    1
   73     42     66    1
#
#	File Created by: Spartan '14 Export
#

@<TRIPOS>MOLECULE
*****
73 82
SMALL
USER_CHARGES


@<TRIPOS>ATOM
    1   C1        -1.416075051    -4.158241508     0.559493168     C.2   1  *****   -0.507324
    2   C2        -2.767799123    -4.071562424     0.878567768     C.2   1  *****    0.651158
    3   C3        -3.379019955    -2.818923622     0.774741372     C.2   1  *****   -0.627383
    4   C4        -2.624330538    -1.724140351     0.373722282     C.2   1  *****    0.585309
    5   N5        -1.321320920    -1.824420779     0.106611578       N   1  *****   -0.591496
    6   C6        -0.717650566    -3.011897611     0.177948600     C.2   1  *****    0.361125
    7   C7         0.731582435    -3.011031067    -0.139436101     C.2   1  *****    0.375448
    8   C8         2.777390259    -4.070613962    -0.852800600     C.2   1  *****    0.632407
    9   C9         1.429595709    -4.158403741    -0.518161033     C.2   1  *****   -0.502550
   10   N10        1.333610446    -1.821771540    -0.077719728       N   1  *****   -0.613638
   11   C11        2.634423660    -1.721544197    -0.354926066     C.2   1  *****    0.583795
   12   C12        3.387737332    -2.817054092    -0.757025634     C.2   1  *****   -0.608746
   13   C13       -3.108047541    -0.292666792     0.359329088     C.2   1  *****    0.386414
   14   C14        3.120956455    -0.291152739    -0.345747131     C.2   1  *****    0.381270
   15   N15        4.360830245     0.016783621     0.075380138     N.3   1  *****   -0.187199
   16   O16       -2.324250832     0.560830689     0.798608044       O   1  *****   -0.554166
   17   N17       -4.341286806     0.021468794    -0.075216430     N.3   1  *****   -0.196367
   18   C18       -5.159045585    -0.838676880    -0.924940459     C.3   1  *****   -0.575990
   19   C19       -4.752019160     1.402265063    -0.019257990     C.2   1  *****    0.501480
   20   O20        2.337659447     0.566588950    -0.776697812       O   1  *****   -0.548107
   21   C21        5.185443438    -0.841106264     0.920538568     C.3   1  *****   -0.598543
   22   C22        4.770781002     1.397813752     0.015606761     C.2   1  *****    0.494494
   23   C23       -6.305484399     3.056399111     0.769411343     C.2   1  *****   -0.037328
   24   C24       -5.617282052     4.032609940     0.056306000     C.2   1  *****   -0.186476
   25   C25       -4.497014408     3.687707041    -0.695352007     C.2   1  *****   -0.030723
   26   C26       -4.060450536     2.369183086    -0.745195105     C.2   1  *****   -0.330730
   27   C27       -5.870399045     1.735399148     0.736489947     C.2   1  *****   -0.364525
   28   C28        6.241793050     3.074533264    -0.874359392     C.2   1  *****   -0.042186
   29   C29        5.808012567     1.753078529    -0.838478879     C.2   1  *****   -0.349436
   30   C30        4.157007044     2.341559388     0.835229419     C.2   1  *****   -0.341310
   31   C31        4.592343636     3.660595442     0.784548729     C.2   1  *****   -0.026661
   32   C32        5.633356232     4.027796547    -0.064443937     C.2   1  *****   -0.190255
   33   Nd33       0.002611870     0.440484473     0.007000530      Nd   1  *****    1.917790
   34   N34        1.010900932    -0.312666828     2.713979760       N   1  *****    0.895289
   35   N35       -0.093855952     3.319927675     0.010860150       N   1  *****    0.910332
   36   N36       -0.990764596    -0.359235145    -2.695775246       N   1  *****    0.882157
   37   O37        0.210041785    -0.518771158    -2.300269902       O   1  *****   -0.578178
   38   O38       -1.765570443     0.226970190    -1.868588647       O   1  *****   -0.572472
   39   O39        0.267322564     2.643534096     1.036807182       O   1  *****   -0.605108
   40   O40       -0.381604111     2.625372335    -1.027931240       O   1  *****   -0.607691
   41   O41        1.764848406     0.288232879     1.876045573       O   1  *****   -0.578179
   42   O42       -0.182921323    -0.518741191     2.321979576       O   1  *****   -0.579908
   43   O43        1.412244962    -0.676293297     3.802803372       O   1  *****   -0.453864
   44   O44       -0.160304115     4.528284972     0.020128988       O   1  *****   -0.421073
   45   O45       -1.376664531    -0.753578133    -3.779768013       O   1  *****   -0.451027
   46   C46       -3.548165111    -5.273961137     1.318543672     C.3   1  *****   -0.798883
   47   C47        3.544637341    -5.264808916    -1.336030298     C.3   1  *****   -0.804972
   48   H48       -0.902704463    -5.108645771     0.651016807       H   1  *****    0.195145
   49   H49       -4.424782578    -2.699480437     1.035381232       H   1  *****    0.237639
   50   H50        0.918019112    -5.111018518    -0.595629831       H   1  *****    0.199022
   51   H51        4.432322565    -2.697693581    -1.022310762       H   1  *****    0.236119
   52   H52       -6.111982497    -1.077256868    -0.443058730       H   1  *****    0.192340
   53   H53       -4.630242814    -1.759216849    -1.162339920       H   1  *****    0.194080
   54   H54       -5.360133967    -0.310965932    -1.860084925       H   1  *****    0.212619
   55   H55        6.135726196    -1.077377350     0.432008029       H   1  *****    0.196084
   56   H56        4.661002284    -1.762905426     1.162831554       H   1  *****    0.198171
   57   H57        5.392685963    -0.311814916     1.853565538       H   1  *****    0.219531
   58   H58       -7.175699675     3.321458278     1.361198867       H   1  *****    0.117533
   59   H59       -5.950372371     5.064940431     0.090986235       H   1  *****    0.134362
   60   H60       -3.949252348     4.447507238    -1.242587664       H   1  *****    0.127719
   61   H61       -3.185459303     2.092403213    -1.322362565       H   1  *****    0.202785
   62   H62       -6.386205085     0.967719297     1.305122873       H   1  *****    0.165372
   63   H63        7.048588444     3.358115317    -1.542473100       H   1  *****    0.119671
   64   H64        6.260827604     1.002611206    -1.478872487       H   1  *****    0.163243
   65   H65        3.340008888     2.042966945     1.483376236       H   1  *****    0.204724
   66   H66        4.106728824     4.404264828     1.407354523       H   1  *****    0.127757
   67   H67        5.965665387     5.060336027    -0.099566570       H   1  *****    0.136737
   68   H68       -4.192009653    -5.036905720     2.170332779       H   1  *****    0.224224
   69   H69       -4.197405555    -5.631973615     0.511482444       H   1  *****    0.217419
   70   H70       -2.890701152    -6.097080944     1.606438298       H   1  *****    0.215761
   71   H71        3.016330326    -6.196497452    -1.122403383       H   1  *****    0.215203
   72   H72        4.533990700    -5.316646221    -0.872502350       H   1  *****    0.219773
   73   H73        3.697457098    -5.209068427    -2.419602052       H   1  *****    0.230994


@<TRIPOS>BOND
    1      1      2    2
    2      1      6    1
    3      2      3    1
    4      3      4    2
    5      4      5    1
    6      5      6    2
    7      6      7    1
    8      9      7    2
    9      7     10    1
   10      8      9    1
   11      8     12    2
   12     10     11    2
   13     11     12    1
   14      4     13    1
   15     11     14    1
   16     14     15    1
   17     13     16    2
   18     13     17    1
   19     17     18    1
   20     17     19    1
   21     14     20    2
   22     15     21    1
   23     15     22    1
   24     26     19    2
   25     19     27    1
   26     23     24    1
   27     23     27    2
   28     24     25    2
   29     25     26    1
   30     29     22    2
   31     22     30    1
   32     28     29    1
   33     28     32    2
   34     30     31    2
   35     31     32    1
   36      5     33    1
   37     16     33    1
   38     10     33    1
   39     20     33    1
   40     36     37    2
   41     36     38    2
   42     35     39    2
   43     35     40    2
   44     34     41    2
   45     34     42    2
   46     34     43    1
   47     35     44    1
   48     36     45    1
   49     37     33    1
   50     39     33    1
   51     40     33    1
   52     42     33    1
   53     41     33    1
   54     38     33    1
   55      2     46    1
   56      8     47    1
   57      1     48    1
   58      3     49    1
   59      9     50    1
   60     12     51    1
   61     18     52    1
   62     18     53    1
   63     18     54    1
   64     21     55    1
   65     21     56    1
   66     21     57    1
   67     23     58    1
   68     24     59    1
   69     25     60    1
   70     26     61    1
   71     27     62    1
   72     28     63    1
   73     29     64    1
   74     30     65    1
   75     31     66    1
   76     32     67    1
   77     46     68    1
   78     46     69    1
   79     46     70    1
   80     47     71    1
   81     47     72    1
   82     47     73    1
#
#	File Created by: Spartan '14 Export
#

@<TRIPOS>MOLECULE
*****
83 92
SMALL
USER_CHARGES


@<TRIPOS>ATOM
    1   C1        -1.413368653    -3.707431375     0.516681077     C.2   1  *****   -0.482174
    2   C2        -2.793979774    -3.634549899     0.791405031     C.2   1  *****    0.390421
    3   C3        -3.405427280    -2.370171007     0.632493929     C.2   1  *****   -0.585866
    4   C4        -2.634959668    -1.291912331     0.237877743     C.2   1  *****    0.642368
    5   N5        -1.321769993    -1.375367407     0.012370718       N   1  *****   -0.625919
    6   C6        -0.724813881    -2.565454177     0.134846443     C.2   1  *****    0.355193
    7   C7         0.737426719    -2.562823103    -0.129197141     C.2   1  *****    0.358671
    8   C8         2.810422938    -3.625118455    -0.784717142     C.2   1  *****    0.388775
    9   C9         1.430202609    -3.702797485    -0.509401576     C.2   1  *****   -0.482032
   10   N10        1.329960472    -1.370234022    -0.008770845       N   1  *****   -0.627021
   11   C11        2.642687548    -1.282184380    -0.235090176     C.2   1  *****    0.640452
   12   C12        3.417050421    -2.358140085    -0.628436469     C.2   1  *****   -0.585472
   13   C13       -3.135803471     0.132113084     0.181981924     C.2   1  *****    0.297287
   14   C14        3.138964476     0.143507622    -0.180750060     C.2   1  *****    0.298083
   15   N15        4.356981569     0.438779710     0.314158374     N.3   1  *****   -0.176910
   16   O16       -2.387865915     1.004358955     0.643410396       O   1  *****   -0.522901
   17   N17       -4.354188427     0.424020302    -0.313707020     N.3   1  *****   -0.178763
   18   C18       -5.115807350    -0.451257182    -1.198451008     C.3   1  *****   -0.573836
   19   C19       -4.779678757     1.800879493    -0.298188856     C.2   1  *****    0.520010
   20   O20        2.388605872     1.013435750    -0.642420475       O   1  *****   -0.522218
   21   C21        5.121134579    -0.433423586     1.199809175     C.3   1  *****   -0.573867
   22   C22        4.779322499     1.816541234     0.296855416     C.2   1  *****    0.513104
   23   C23       -6.356616742     3.461539655     0.429012460     C.2   1  *****   -0.044308
   24   C24       -5.673030003     4.423194942    -0.307715981     C.2   1  *****   -0.187207
   25   C25       -4.542990833     4.068024470    -1.039909260     C.2   1  *****   -0.028755
   26   C26       -4.091752986     2.753438993    -1.046265511     C.2   1  *****   -0.342879
   27   C27       -5.907503078     2.144715039     0.438185321     C.2   1  *****   -0.363470
   28   C28        6.348526672     3.481127978    -0.438021521     C.2   1  *****   -0.046042
   29   C29        5.901683854     2.163534197    -0.446320837     C.2   1  *****   -0.359145
   30   C30        4.094452914     2.766652054     1.050780738     C.2   1  *****   -0.337230
   31   C31        4.543592761     4.081962906     1.043913860     C.2   1  *****   -0.032515
   32   C32        5.668253777     4.440296233     0.304962330     C.2   1  *****   -0.186079
   33   Nd33      -0.000539764     0.868677949     0.000152868      Nd   1  *****    1.899955
   34   N34       -0.836921994     0.141030335    -2.773550231       N   1  *****    0.895191
   35   N35       -0.019348879     3.754998194    -0.001601714       N   1  *****    0.906994
   36   N36        0.841206366     0.150061478     2.773915117       N   1  *****    0.895275
   37   O37       -0.333224519    -0.035980983     2.319807813       O   1  *****   -0.577621
   38   O38        1.652998704     0.725680518     1.974887270       O   1  *****   -0.575489
   39   O39       -0.237347037     3.067913400    -1.060461504       O   1  *****   -0.601700
   40   O40        0.211244143     3.071865577     1.056990551       O   1  *****   -0.600583
   41   O41       -1.656442944     0.707966765    -1.976765812       O   1  *****   -0.574728
   42   O42        0.339159861    -0.031012613    -2.317351211       O   1  *****   -0.578048
   43   O43       -1.162968239    -0.224294479    -3.888151726       O   1  *****   -0.462331
   44   O44       -0.030735735     4.966319569    -0.001534677       O   1  *****   -0.428495
   45   O45        1.173765750    -0.210034763     3.888256478       O   1  *****   -0.462151
   46   N46       -3.503191395    -4.723335672     1.200365600     N.3   1  *****    0.138743
   47   N47        3.523840185    -4.712077750    -1.191354995     N.3   1  *****    0.140066
   48   C48       -2.831560570    -5.989416584     1.408791475     C.3   1  *****   -0.576159
   49   C49        2.856719066    -5.980728678    -1.398723916     C.3   1  *****   -0.575822
   50   C50       -4.895080077    -4.581067568     1.578807425     C.3   1  *****   -0.562720
   51   C51        4.914539642    -4.564662539    -1.572291800     C.3   1  *****   -0.565018
   52   H52       -0.871576458    -4.631483616     0.656946438       H   1  *****    0.186440
   53   H53       -4.454003079    -2.226154583     0.850162856       H   1  *****    0.220835
   54   H54        0.892004501    -4.629182231    -0.647931185       H   1  *****    0.186353
   55   H55        4.464942250    -2.210560659    -0.846902762       H   1  *****    0.221189
   56   H56       -6.091048070    -0.696587327    -0.766013750       H   1  *****    0.184583
   57   H57       -4.565216455    -1.368041420    -1.397582162       H   1  *****    0.187067
   58   H58       -5.274302235     0.066565180    -2.147466211       H   1  *****    0.209838
   59   H59        6.096256932    -0.678096095     0.766711113       H   1  *****    0.184191
   60   H60        4.572285536    -1.350669086     1.401610556       H   1  *****    0.187389
   61   H61        5.280006735     0.086713719     2.147502149       H   1  *****    0.210023
   62   H62       -7.234184276     3.735066256     1.006027611       H   1  *****    0.118199
   63   H63       -6.017044895     5.452591930    -0.306519408       H   1  *****    0.133245
   64   H64       -3.999930765     4.817746895    -1.605511821       H   1  *****    0.126971
   65   H65       -3.208159635     2.465455427    -1.605340680       H   1  *****    0.204970
   66   H66       -6.419539457     1.388042619     1.024737618       H   1  *****    0.161880
   67   H67        7.221815657     3.757137859    -1.020313177       H   1  *****    0.118458
   68   H68        6.411232596     1.408602218    -1.037249688       H   1  *****    0.161429
   69   H69        3.214831752     2.475853067     1.614767158       H   1  *****    0.203353
   70   H70        4.003458846     4.829847741     1.614730376       H   1  *****    0.127658
   71   H71        6.010642555     5.470232803     0.303475525       H   1  *****    0.133437
   72   H72       -3.568415419    -6.744617297     1.679790927       H   1  *****    0.212593
   73   H73       -2.085584221    -5.935403282     2.212673395       H   1  *****    0.184602
   74   H74       -2.330125462    -6.326776841     0.494462348       H   1  *****    0.168594
   75   H75        3.596619479    -6.733946560    -1.666955963       H   1  *****    0.212252
   76   H76        2.354929459    -6.318050717    -0.484596033       H   1  *****    0.168511
   77   H77        2.111903002    -5.930826786    -2.203962535       H   1  *****    0.184714
   78   H78       -5.284663940    -5.553441192     1.876793219       H   1  *****    0.208796
   79   H79       -5.022222064    -3.889728288     2.421340004       H   1  *****    0.183920
   80   H80       -5.502266300    -4.219406623     0.741075863       H   1  *****    0.169593
   81   H81        5.308484408    -5.536457842    -1.866422586       H   1  *****    0.209544
   82   H82        5.520873892    -4.196503989    -0.736811112       H   1  *****    0.170008
   83   H83        5.037423103    -3.876368265    -2.417958527       H   1  *****    0.184250


@<TRIPOS>BOND
    1      1      2    2
    2      1      6    1
    3      2      3    1
    4      3      4    2
    5      4      5    1
    6      5      6    2
    7      6      7    1
    8      9      7    2
    9      7     10    1
   10      8      9    1
   11      8     12    2
   12     10     11    2
   13     11     12    1
   14      4     13    1
   15     11     14    1
   16     14     15    1
   17     13     16    2
   18     13     17    1
   19     17     18    1
   20     17     19    1
   21     14     20    2
   22     15     21    1
   23     15     22    1
   24     26     19    2
   25     19     27    1
   26     23     24    1
   27     23     27    2
   28     24     25    2
   29     25     26    1
   30     29     22    2
   31     22     30    1
   32     28     29    1
   33     28     32    2
   34     30     31    2
   35     31     32    1
   36      5     33    1
   37     16     33    1
   38     10     33    1
   39     20     33    1
   40     36     37    2
   41     36     38    2
   42     35     39    2
   43     35     40    2
   44     34     41    2
   45     34     42    2
   46     34     43    1
   47     35     44    1
   48     36     45    1
   49     37     33    1
   50     39     33    1
   51     40     33    1
   52     42     33    1
   53     41     33    1
   54     38     33    1
   55      2     46    1
   56      8     47    1
   57     46     48    1
   58     47     49    1
   59     46     50    1
   60     47     51    1
   61      1     52    1
   62      3     53    1
   63      9     54    1
   64     12     55    1
   65     18     56    1
   66     18     57    1
   67     18     58    1
   68     21     59    1
   69     21     60    1
   70     21     61    1
   71     23     62    1
   72     24     63    1
   73     25     64    1
   74     26     65    1
   75     27     66    1
   76     28     67    1
   77     29     68    1
   78     30     69    1
   79     31     70    1
   80     32     71    1
   81     48     72    1
   82     48     73    1
   83     48     74    1
   84     49     75    1
   85     49     76    1
   86     49     77    1
   87     50     78    1
   88     50     79    1
   89     50     80    1
   90     51     81    1
   91     51     82    1
   92     51     83    1
#
#	File Created by: Spartan '14 Export
#

@<TRIPOS>MOLECULE
*****
71 80
SMALL
USER_CHARGES


@<TRIPOS>ATOM
    1   C1        -1.424780896    -3.796968214     0.481020180     C.2   1  *****   -0.339691
    2   C2        -2.776208719    -3.659187745     0.731999425     C.2   1  *****    0.189341
    3   C3        -3.422488855    -2.439592266     0.626328931     C.2   1  *****   -0.450582
    4   C4        -2.644365164    -1.346747335     0.253746216     C.2   1  *****    0.656812
    5   N5        -1.332325630    -1.457562203     0.044792191       N   1  *****   -0.586804
    6   C6        -0.722327137    -2.640932136     0.136973683     C.2   1  *****    0.343486
    7   C7         0.739308057    -2.637628086    -0.113987070     C.2   1  *****    0.355730
    8   C8         2.796418591    -3.647901961    -0.711629034     C.2   1  *****    0.191854
    9   C9         1.446578151    -3.791444578    -0.455276401     C.2   1  *****   -0.345451
   10   N10        1.343558593    -1.450543478    -0.028392330       N   1  *****   -0.589075
   11   C11        2.654140680    -1.334212574    -0.242736897     C.2   1  *****    0.637973
   12   C12        3.436596245    -2.424590132    -0.613716607     C.2   1  *****   -0.443866
   13   C13       -3.128476923     0.086352787     0.217067902     C.2   1  *****    0.288182
   14   C14        3.133366082     0.100619436    -0.212934203     C.2   1  *****    0.306335
   15   N15        4.348715776     0.411359158     0.260592946     N.3   1  *****   -0.146120
   16   O16       -2.357188498     0.935938427     0.684658612       O   1  *****   -0.530810
   17   N17       -4.342510524     0.394016102    -0.261429730     N.3   1  *****   -0.146591
   18   C18       -5.151911320    -0.480365318    -1.106426668     C.3   1  *****   -0.567016
   19   C19       -4.756436861     1.775955057    -0.221821681     C.2   1  *****    0.505435
   20   O20        2.359601177     0.947627292    -0.680685525       O   1  *****   -0.531376
   21   C21        5.161646346    -0.456108028     1.109237464     C.3   1  *****   -0.581399
   22   C22        4.756883675     1.794984351     0.216636842     C.2   1  *****    0.490004
   23   C23       -6.299093680     3.441944763     0.556470760     C.2   1  *****   -0.031579
   24   C24       -5.617445810     4.405497315    -0.179773640     C.2   1  *****   -0.187113
   25   C25       -4.505148229     4.048273349    -0.937553992     C.2   1  *****   -0.018967
   26   C26       -4.069911157     2.728737124    -0.969929609     C.2   1  *****   -0.353828
   27   C27       -5.866509206     2.119817306     0.540628114     C.2   1  *****   -0.368659
   28   C28        6.250430206     3.477879265    -0.617588992     C.2   1  *****   -0.036418
   29   C29        5.823324309     2.153980223    -0.598815487     C.2   1  *****   -0.357899
   30   C30        4.107195263     2.733576584     1.013667036     C.2   1  *****   -0.349301
   31   C31        4.537192774     4.054860059     0.979673237     C.2   1  *****   -0.024349
   32   C32        5.606967552     4.427251126     0.169594020     C.2   1  *****   -0.181892
   33   Nd33      -0.000977976     0.845074941     0.000326760      Nd   1  *****    1.909588
   34   N34        0.872869823     0.011501688     2.726416005       N   1  *****    0.895076
   35   N35       -0.055643190     3.713715943    -0.005954513       N   1  *****    0.897405
   36   N36       -0.863111182    -0.022713307    -2.720207422       N   1  *****    0.897602
   37   O37        0.313701476    -0.196649593    -2.258521935       O   1  *****   -0.582785
   38   O38       -1.664539744     0.598594695    -1.943864188       O   1  *****   -0.588485
   39   O39        0.257218360     3.032392615     1.034921113       O   1  *****   -0.597288
   40   O40       -0.328201674     3.017063744    -1.048856131       O   1  *****   -0.596782
   41   O41        1.659896300     0.643956369     1.943148700       O   1  *****   -0.585193
   42   O42       -0.299323456    -0.193185907     2.267182565       O   1  *****   -0.580204
   43   O43        1.222218091    -0.382409900     3.820269853       O   1  *****   -0.441001
   44   O44       -0.092152776     4.921172595    -0.005057455       O   1  *****   -0.408127
   45   O45       -1.201716732    -0.434885896    -3.810785095       O   1  *****   -0.441103
   46   N46       -3.551593457    -4.847800859     1.135188499       N   1  *****    0.681861
   47   N47        3.576449245    -4.834187814    -1.112715649       N   1  *****    0.680114
   48   O48       -4.739845578    -4.682062919     1.367499215     O.2   1  *****   -0.368307
   49   O49        2.978905096    -5.898534495    -1.171474220     O.2   1  *****   -0.370878
   50   O50       -2.948390475    -5.908469532     1.202374794     O.2   1  *****   -0.371693
   51   O51        4.762556253    -4.662912720    -1.351874093     O.2   1  *****   -0.368118
   52   H52       -0.956533387    -4.765429719     0.590809772       H   1  *****    0.191815
   53   H53       -4.477346633    -2.361796898     0.850811380       H   1  *****    0.213756
   54   H54        0.982822202    -4.762652296    -0.559712928       H   1  *****    0.192400
   55   H55        4.490172216    -2.342151231    -0.842535005       H   1  *****    0.212610
   56   H56       -6.096274000    -0.737266568    -0.617813708       H   1  *****    0.198107
   57   H57       -4.610154671    -1.390374297    -1.356600185       H   1  *****    0.182645
   58   H58       -5.369368806     0.048594907    -2.036572902       H   1  *****    0.212943
   59   H59        6.107039008    -0.711045858     0.621459482       H   1  *****    0.202198
   60   H60        4.623900823    -1.367271706     1.363893202       H   1  *****    0.186183
   61   H61        5.377330330     0.078136620     2.036822561       H   1  *****    0.216843
   62   H62       -7.162866895     3.717544475     1.152486687       H   1  *****    0.121514
   63   H63       -5.949729368     5.438302820    -0.158662331       H   1  *****    0.137495
   64   H64       -3.963797345     4.799040817    -1.503139713       H   1  *****    0.127381
   65   H65       -3.200408217     2.440082320    -1.549979774       H   1  *****    0.210396
   66   H66       -6.377629896     1.362207330     1.126442050       H   1  *****    0.169486
   67   H67        7.080014106     3.766068531    -1.254774389       H   1  *****    0.122694
   68   H68        6.304088544     1.406775322    -1.222264497       H   1  *****    0.168500
   69   H69        3.268523666     2.430716853     1.631270388       H   1  *****    0.209604
   70   H70        4.025877595     4.795604354     1.584996551       H   1  *****    0.128466
   71   H71        5.935216280     5.461312651     0.147327810       H   1  *****    0.136920


@<TRIPOS>BOND
    1      1      2    2
    2      1      6    1
    3      2      3    1
    4      3      4    2
    5      4      5    1
    6      5      6    2
    7      6      7    1
    8      9      7    2
    9      7     10    1
   10      8      9    1
   11      8     12    2
   12     10     11    2
   13     11     12    1
   14      4     13    1
   15     11     14    1
   16     14     15    1
   17     13     16    2
   18     13     17    1
   19     17     18    1
   20     17     19    1
   21     14     20    2
   22     15     21    1
   23     15     22    1
   24     26     19    2
   25     19     27    1
   26     23     24    1
   27     23     27    2
   28     24     25    2
   29     25     26    1
   30     29     22    2
   31     22     30    1
   32     28     29    1
   33     28     32    2
   34     30     31    2
   35     31     32    1
   36      5     33    1
   37     16     33    1
   38     10     33    1
   39     20     33    1
   40     36     37    2
   41     36     38    2
   42     35     39    2
   43     35     40    2
   44     34     41    2
   45     34     42    2
   46     34     43    1
   47     35     44    1
   48     36     45    1
   49     37     33    1
   50     39     33    1
   51     40     33    1
   52     42     33    1
   53     41     33    1
   54     38     33    1
   55      2     46    1
   56      8     47    1
   57     46     48    2
   58     47     49    2
   59     46     50    2
   60     47     51    2
   61      1     52    1
   62      3     53    1
   63      9     54    1
   64     12     55    1
   65     18     56    1
   66     18     57    1
   67     18     58    1
   68     21     59    1
   69     21     60    1
   70     21     61    1
   71     23     62    1
   72     24     63    1
   73     25     64    1
   74     26     65    1
   75     27     66    1
   76     28     67    1
   77     29     68    1
   78     30     69    1
   79     31     70    1
   80     32     71    1
#
#	File Created by: Spartan '14 Export
#

@<TRIPOS>MOLECULE
*****
75 84
SMALL
USER_CHARGES


@<TRIPOS>ATOM
    1   C1        -1.425749720    -3.957730124     0.511307181     C.2   1  *****   -0.564917
    2   C2        -2.787146335    -3.851882473     0.808334800     C.2   1  *****    0.651442
    3   C3        -3.412144521    -2.607633507     0.684383853     C.2   1  *****   -0.600585
    4   C4        -2.635416588    -1.525489456     0.284300354     C.2   1  *****    0.585985
    5   N5        -1.331297557    -1.623879605     0.039958948       N   1  *****   -0.630767
    6   C6        -0.731222021    -2.818146571     0.135592803     C.2   1  *****    0.402214
    7   C7         0.724793308    -2.820317271    -0.149713551     C.2   1  *****    0.402169
    8   C8         2.779269390    -3.859582340    -0.818122553     C.2   1  *****    0.651142
    9   C9         1.416634896    -3.961561193    -0.525422053     C.2   1  *****   -0.567154
   10   N10        1.328401102    -1.628254574    -0.051064115       N   1  *****   -0.624073
   11   C11        2.633673812    -1.533540201    -0.290937081     C.2   1  *****    0.577625
   12   C12        3.408129778    -2.617605908    -0.689998430     C.2   1  *****   -0.596104
   13   C13       -3.127083428    -0.096253300     0.244693790     C.2   1  *****    0.364983
   14   C14        3.128351358    -0.105423716    -0.247772869     C.2   1  *****    0.365520
   15   N15        4.350698066     0.192112529     0.230244808     N.3   1  *****   -0.194498
   16   O16       -2.365556423     0.766466561     0.701451523       O   1  *****   -0.539615
   17   N17       -4.350851409     0.202741137    -0.229169520     N.3   1  *****   -0.201532
   18   C18       -5.125720015    -0.661444003    -1.114135182     C.3   1  *****   -0.560456
   19   C19       -4.771266771     1.581561301    -0.195615588     C.2   1  *****    0.511155
   20   O20        2.368932762     0.758543204    -0.705907241       O   1  *****   -0.540000
   21   C21        5.121495585    -0.674548778     1.116302399     C.3   1  *****   -0.559032
   22   C22        4.773026130     1.570419444     0.199113350     C.2   1  *****    0.503773
   23   C23       -6.313648286     3.246142233     0.591631145     C.2   1  *****   -0.045418
   24   C24       -5.655021155     4.205863856    -0.169931596     C.2   1  *****   -0.179397
   25   C25       -4.554204855     3.847837817    -0.944108445     C.2   1  *****   -0.031091
   26   C26       -4.107730163     2.531796692    -0.967862146     C.2   1  *****   -0.339526
   27   C27       -5.869364645     1.927737363     0.583065926     C.2   1  *****   -0.358763
   28   C28        6.334952271     3.228797938    -0.562929931     C.2   1  *****   -0.045387
   29   C29        5.889780670     1.910663174    -0.555471079     C.2   1  *****   -0.358064
   30   C30        4.092232474     2.526608869     0.948763613     C.2   1  *****   -0.333701
   31   C31        4.539280375     3.842440306     0.925254596     C.2   1  *****   -0.034806
   32   C32        5.658356651     4.194516196     0.174945110     C.2   1  *****   -0.180553
   33   Nd33       0.002976276     0.631181077    -0.001470931      Nd   1  *****    1.906782
   34   N34        0.902938261    -0.129969328     2.741775060       N   1  *****    0.893022
   35   N35        0.038584184     3.512120121     0.000610181       N   1  *****    0.906801
   36   N36       -0.903944532    -0.108151449    -2.746565406       N   1  *****    0.895425
   37   O37        0.277561672    -0.305456582    -2.315054649       O   1  *****   -0.577574
   38   O38       -1.692457868     0.479303374    -1.931387451       O   1  *****   -0.578186
   39   O39        0.285370414     2.821826571     1.051935827       O   1  *****   -0.602622
   40   O40       -0.234121347     2.829942896    -1.049055284       O   1  *****   -0.600536
   41   O41        1.700707282     0.450857290     1.931674509       O   1  *****   -0.577140
   42   O42       -0.281318907    -0.307190174     2.307962191       O   1  *****   -0.577803
   43   O43        1.255610228    -0.502185937     3.844661389       O   1  *****   -0.453989
   44   O44        0.061864777     4.722302622    -0.000159656       O   1  *****   -0.423266
   45   O45       -1.263693467    -0.467478069    -3.851349961       O   1  *****   -0.454503
   46   O46       -3.395312363    -4.977327930     1.208748746     O.3   1  *****   -0.279071
   47   O47        3.385081315    -4.986377574    -1.218367912     O.3   1  *****   -0.278469
   48   C48       -4.761704753    -4.916463233     1.587961771     C.3   1  *****   -0.334660
   49   C49        4.752997706    -4.929430198    -1.592671648     C.3   1  *****   -0.336751
   50   H50       -0.939438723    -4.917486052     0.629673909       H   1  *****    0.218716
   51   H51       -4.458270852    -2.471241549     0.920834036       H   1  *****    0.219861
   52   H52        0.927716170    -4.919690299    -0.646281482       H   1  *****    0.219272
   53   H53        4.455580534    -2.484506198    -0.922503775       H   1  *****    0.218353
   54   H54       -6.098226025    -0.903562541    -0.674396518       H   1  *****    0.184621
   55   H55       -4.582889642    -1.579541674    -1.328605864       H   1  *****    0.189548
   56   H56       -5.289329468    -0.134550075    -2.057152413       H   1  *****    0.209817
   57   H57        6.095359103    -0.916933856     0.679778158       H   1  *****    0.183703
   58   H58        4.576794971    -1.592400069     1.327049335       H   1  *****    0.188780
   59   H59        5.281921625    -0.149699437     2.060973003       H   1  *****    0.209405
   60   H60       -7.168043783     3.522259189     1.201115992       H   1  *****    0.119391
   61   H61       -5.995629255     5.236220924    -0.155529072       H   1  *****    0.132551
   62   H62       -4.030797379     4.596341406    -1.529416201       H   1  *****    0.127699
   63   H63       -3.246034463     2.240829782    -1.558864185       H   1  *****    0.202901
   64   H64       -6.361891412     1.172281067     1.187490803       H   1  *****    0.162832
   65   H65        7.204009579     3.499977449    -1.153628003       H   1  *****    0.119530
   66   H66        6.396397784     1.150824264    -1.142597537       H   1  *****    0.162311
   67   H67        3.217360071     2.241343858     1.522602937       H   1  *****    0.203168
   68   H68        4.001389376     4.595161163     1.491732556       H   1  *****    0.128975
   69   H69        5.999408799     5.224730075     0.160646156       H   1  *****    0.133565
   70   H70       -5.027564241    -5.926068437     1.897441298       H   1  *****    0.193230
   71   H71       -4.907885347    -4.226534893     2.425700448       H   1  *****    0.159207
   72   H72       -5.394680543    -4.615289686     0.746078764       H   1  *****    0.150241
   73   H73        5.016491006    -5.939345778    -1.903172547       H   1  *****    0.193624
   74   H74        4.904533526    -4.238424454    -2.428579713       H   1  *****    0.159782
   75   H75        5.384051538    -4.632059467    -0.747986887       H   1  *****    0.150888


@<TRIPOS>BOND
    1      1      2    2
    2      1      6    1
    3      2      3    1
    4      3      4    2
    5      4      5    1
    6      5      6    2
    7      6      7    1
    8      9      7    2
    9      7     10    1
   10      8      9    1
   11      8     12    2
   12     10     11    2
   13     11     12    1
   14      4     13    1
   15     11     14    1
   16     14     15    1
   17     13     16    2
   18     13     17    1
   19     17     18    1
   20     17     19    1
   21     14     20    2
   22     15     21    1
   23     15     22    1
   24     26     19    2
   25     19     27    1
   26     23     24    1
   27     23     27    2
   28     24     25    2
   29     25     26    1
   30     29     22    2
   31     22     30    1
   32     28     29    1
   33     28     32    2
   34     30     31    2
   35     31     32    1
   36      5     33    1
   37     16     33    1
   38     10     33    1
   39     20     33    1
   40     36     37    2
   41     36     38    2
   42     35     39    2
   43     35     40    2
   44     34     41    2
   45     34     42    2
   46     34     43    1
   47     35     44    1
   48     36     45    1
   49     37     33    1
   50     39     33    1
   51     40     33    1
   52     42     33    1
   53     41     33    1
   54     38     33    1
   55      2     46    1
   56      8     47    1
   57     46     48    1
   58     47     49    1
   59      1     50    1
   60      3     51    1
   61      9     52    1
   62     12     53    1
   63     18     54    1
   64     18     55    1
   65     18     56    1
   66     21     57    1
   67     21     58    1
   68     21     59    1
   69     23     60    1
   70     24     61    1
   71     25     62    1
   72     26     63    1
   73     27     64    1
   74     28     65    1
   75     29     66    1
   76     30     67    1
   77     31     68    1
   78     32     69    1
   79     48     70    1
   80     48     71    1
   81     48     72    1
   82     49     73    1
   83     49     74    1
   84     49     75    1
#
#	File Created by: Spartan '14 Export
#

@<TRIPOS>MOLECULE
*****
73 82
SMALL
USER_CHARGES


@<TRIPOS>ATOM
    1   C1        -1.436348142    -4.632396151     0.508907868     C.2   1  *****   -0.323040
    2   C2        -2.775455796    -4.519603423     0.850846309     C.2   1  *****    0.095210
    3   C3        -3.396897716    -3.277521228     0.787879675     C.2   1  *****   -0.414682
    4   C4        -2.639844486    -2.181149198     0.383727336     C.2   1  *****    0.615616
    5   N5        -1.344333249    -2.291891237     0.088228271       N   1  *****   -0.596582
    6   C6        -0.739790613    -3.481988332     0.131832111     C.2   1  *****    0.340176
    7   C7         0.706486879    -3.484665332    -0.198253162     C.2   1  *****    0.317271
    8   C8         2.749666178    -4.527343185    -0.887716588     C.2   1  *****    0.098292
    9   C9         1.403894575    -4.636126608    -0.570969702     C.2   1  *****   -0.321025
   10   N10        1.315118928    -2.297921742    -0.142586954       N   1  *****   -0.556201
   11   C11        2.616338095    -2.190797386    -0.413407765     C.2   1  *****    0.601383
   12   C12        3.376687693    -3.288811348    -0.805526460     C.2   1  *****   -0.417905
   13   C13       -3.115170099    -0.746669013     0.393009081     C.2   1  *****    0.281651
   14   C14        3.091715217    -0.756049745    -0.411997286     C.2   1  *****    0.292615
   15   N15        4.321148634    -0.430001806     0.020633081     N.3   1  *****   -0.118155
   16   O16       -2.316091484     0.102147351     0.813616697       O   1  *****   -0.517540
   17   N17       -4.359464711    -0.425621070    -0.001167084     N.3   1  *****   -0.109022
   18   C18       -5.216780593    -1.271612679    -0.824992864     C.3   1  *****   -0.619339
   19   C19       -4.745724006     0.961689099     0.070366967     C.2   1  *****    0.375383
   20   O20        2.300595393     0.085880555    -0.861801944       O   1  *****   -0.529021
   21   C21        5.132840066    -1.272209832     0.894030529     C.3   1  *****   -0.586656
   22   C22        4.719702399     0.953671934    -0.049401226     C.2   1  *****    0.398318
   23   C23       -6.091413908     2.689867623     1.051773531     C.2   1  *****   -0.246559
   24   C24       -5.547622772     3.635208758     0.182485681     C.2   1  *****    0.387533
   25   C25       -4.595485323     3.208150955    -0.749418106     C.2   1  *****   -0.245211
   26   C26       -4.192490854     1.882676833    -0.816048647     C.2   1  *****   -0.272294
   27   C27       -5.693963413     1.357401071     1.002901603     C.2   1  *****   -0.270371
   28   C28        4.444266451     3.244363263     0.599917594     C.2   1  *****   -0.243108
   29   C29        4.024874935     1.924183630     0.669710296     C.2   1  *****   -0.282041
   30   C30        5.827933707     1.297500773    -0.811485958     C.2   1  *****   -0.301771
   31   C31        6.242365063     2.624661797    -0.859982687     C.2   1  *****   -0.239704
   32   C32        5.554496751     3.618512719    -0.164133640     C.2   1  *****    0.389177
   33   Nd33      -0.004153648    -0.023313510    -0.018734157      Nd   1  *****    1.909635
   34   N34        1.037507035    -0.849726412     2.660615179       N   1  *****    0.881629
   35   N35        0.139323382     2.851743037    -0.019467149       N   1  *****    0.923288
   36   N36       -1.073295715    -0.776469955    -2.699415203       N   1  *****    0.899062
   37   O37        0.120304952    -1.017323292    -2.328086600       O   1  *****   -0.581363
   38   O38       -1.792528550    -0.148286010    -1.849770386       O   1  *****   -0.581587
   39   O39        0.401398009     2.152392412     1.023402838       O   1  *****   -0.611305
   40   O40       -0.230721833     2.182491054    -1.046194946       O   1  *****   -0.604313
   41   O41        1.797207196    -0.252933274     1.826722814       O   1  *****   -0.572639
   42   O42       -0.169147437    -1.008263063     2.282983028       O   1  *****   -0.579932
   43   O43        1.442241417    -1.254092549     3.733738695       O   1  *****   -0.448776
   44   O44        0.237504623     4.058031702    -0.030433487       O   1  *****   -0.426054
   45   O45       -1.507044346    -1.132337299    -3.777900513       O   1  *****   -0.452855
   46   C46        5.975294984     5.058944234    -0.246719185     C.3   1  *****   -0.784584
   47   C47       -5.950551982     5.081298818     0.255242242     C.3   1  *****   -0.789208
   48   H48       -0.933036140    -5.589112314     0.575383323       H   1  *****    0.166589
   49   H49       -3.329801789    -5.391809890     1.180063988       H   1  *****    0.120134
   50   H50       -4.435148892    -3.159790074     1.072930674       H   1  *****    0.193541
   51   H51        3.306128585    -5.400753565    -1.210153845       H   1  *****    0.119633
   52   H52        0.898336311    -5.590737185    -0.649981618       H   1  *****    0.165905
   53   H53        4.421972424    -3.175206163    -1.066018231       H   1  *****    0.192746
   54   H54       -6.158320947    -1.490883429    -0.312191927       H   1  *****    0.201307
   55   H55       -4.714750202    -2.202508069    -1.080201103       H   1  *****    0.194588
   56   H56       -5.439521892    -0.739762838    -1.752983954       H   1  *****    0.225867
   57   H57        6.098129107    -1.500944147     0.432877860       H   1  *****    0.193943
   58   H58        4.612196496    -2.197659617     1.130761858       H   1  *****    0.184515
   59   H59        5.307065728    -0.733479047     1.828257863       H   1  *****    0.218248
   60   H60       -6.829172677     2.999708495     1.786252617       H   1  *****    0.157730
   61   H61       -4.150702785     3.928414795    -1.429855347       H   1  *****    0.173976
   62   H62       -3.441635890     1.559369680    -1.529556906       H   1  *****    0.200862
   63   H63       -6.109521084     0.631772462     1.695170586       H   1  *****    0.157415
   64   H64        3.887703414     4.001017100     1.145073159       H   1  *****    0.173983
   65   H65        3.157867621     1.648665317     1.259382613       H   1  *****    0.207579
   66   H66        6.357127878     0.534691008    -1.374520501       H   1  *****    0.162955
   67   H67        7.108705429     2.891429413    -1.458453214       H   1  *****    0.156084
   68   H68        5.255280834     5.646073577    -0.828036573       H   1  *****    0.221774
   69   H69        6.033093918     5.517330263     0.745734511       H   1  *****    0.207753
   70   H70        6.952322501     5.166156649    -0.725195206       H   1  *****    0.202021
   71   H71       -6.802419841     5.227237628     0.924349095       H   1  *****    0.205768
   72   H72       -6.223646802     5.471239427    -0.730671724       H   1  *****    0.208030
   73   H73       -5.126467612     5.700707459     0.626748269       H   1  *****    0.223658


@<TRIPOS>BOND
    1      1      2    2
    2      1      6    1
    3      2      3    1
    4      3      4    2
    5      4      5    1
    6      5      6    2
    7      6      7    1
    8      9      7    2
    9      7     10    1
   10      8      9    1
   11      8     12    2
   12     10     11    2
   13     11     12    1
   14      4     13    1
   15     11     14    1
   16     14     15    1
   17     13     16    2
   18     13     17    1
   19     17     18    1
   20     17     19    1
   21     14     20    2
   22     15     21    1
   23     15     22    1
   24     26     19    2
   25     19     27    1
   26     23     24    1
   27     23     27    2
   28     24     25    2
   29     25     26    1
   30     29     22    2
   31     22     30    1
   32     28     29    1
   33     28     32    2
   34     30     31    2
   35     31     32    1
   36      5     33    1
   37     16     33    1
   38     10     33    1
   39     20     33    1
   40     36     37    2
   41     36     38    2
   42     35     39    2
   43     35     40    2
   44     34     41    2
   45     34     42    2
   46     34     43    1
   47     35     44    1
   48     36     45    1
   49     37     33    1
   50     39     33    1
   51     40     33    1
   52     42     33    1
   53     41     33    1
   54     38     33    1
   55     32     46    1
   56     24     47    1
   57      1     48    1
   58      2     49    1
   59      3     50    1
   60      8     51    1
   61      9     52    1
   62     12     53    1
   63     18     54    1
   64     18     55    1
   65     18     56    1
   66     21     57    1
   67     21     58    1
   68     21     59    1
   69     23     60    1
   70     25     61    1
   71     26     62    1
   72     27     63    1
   73     28     64    1
   74     29     65    1
   75     30     66    1
   76     31     67    1
   77     46     68    1
   78     46     69    1
   79     46     70    1
   80     47     71    1
   81     47     72    1
   82     47     73    1
#
#	File Created by: Spartan '14 Export
#

@<TRIPOS>MOLECULE
*****
67 76
SMALL
USER_CHARGES


@<TRIPOS>ATOM
    1   C1        -1.396855212    -4.419127552     0.549271489     C.2   1  *****   -0.324173
    2   C2        -2.740959797    -4.314557630     0.874671989     C.2   1  *****    0.099106
    3   C3        -3.369409803    -3.075783911     0.808090169     C.2   1  *****   -0.428107
    4   C4        -2.611783092    -1.973540239     0.422680134     C.2   1  *****    0.623865
    5   N5        -1.311852844    -2.076745277     0.144881393       N   1  *****   -0.575668
    6   C6        -0.701990085    -3.263576189     0.184343448     C.2   1  *****    0.331817
    7   C7         0.742145073    -3.255964764    -0.155245402     C.2   1  *****    0.321956
    8   C8         2.777888272    -4.284812903    -0.886978021     C.2   1  *****    0.093668
    9   C9         1.441284457    -4.403313955    -0.537233571     C.2   1  *****   -0.316043
   10   N10        1.342412381    -2.063546816    -0.115210487       N   1  *****   -0.584617
   11   C11        2.635692423    -1.947307176    -0.417920181     C.2   1  *****    0.630485
   12   C12        3.394936403    -3.040365020    -0.826907848     C.2   1  *****   -0.423223
   13   C13       -3.089790002    -0.539623181     0.434534101     C.2   1  *****    0.298238
   14   C14        3.105364633    -0.510865259    -0.428348369     C.2   1  *****    0.278864
   15   N15        4.350802351    -0.187284799    -0.039098879     N.3   1  *****   -0.150677
   16   O16       -2.300172871     0.300847040     0.888907868       O   1  *****   -0.534103
   17   N17       -4.322438642    -0.214984256     0.008536227     N.3   1  *****   -0.169510
   18   C18       -5.124572999    -1.046309839    -0.884407945     C.3   1  *****   -0.609012
   19   C19       -4.728321487     1.166445694     0.092284784     C.2   1  *****    0.506981
   20   O20        2.302221501     0.335756847    -0.845388483       O   1  *****   -0.524562
   21   C21        5.208427194    -1.029831961     0.788464598     C.3   1  *****   -0.633070
   22   C22        4.737642835     1.200374175    -0.112248256     C.2   1  *****    0.504186
   23   C23       -6.266744705     2.811381529     0.927656688     C.2   1  *****   -0.043931
   24   C24       -5.584327881     3.797486211     0.222728214     C.2   1  *****   -0.185566
   25   C25       -4.474398921     3.462167056    -0.548418398     C.2   1  *****   -0.025366
   26   C26       -4.043050881     2.143252346    -0.626110887     C.2   1  *****   -0.341899
   27   C27       -5.836215778     1.489765628     0.867322561     C.2   1  *****   -0.357956
   28   C28        6.106565689     2.912797179    -1.090691903     C.2   1  *****   -0.047024
   29   C29        5.698172098     1.583732002    -1.040414736     C.2   1  *****   -0.343732
   30   C30        4.176434678     2.121851209     0.767803818     C.2   1  *****   -0.345804
   31   C31        4.586709015     3.448270992     0.704057671     C.2   1  *****   -0.025411
   32   C32        5.551010233     3.844094450    -0.219508655     C.2   1  *****   -0.185166
   33   Nd33      -0.001529331     0.200307435     0.015913805      Nd   1  *****    1.908618
   34   N34        1.100920128    -0.562348044     2.679762265       N   1  *****    0.881843
   35   N35       -0.142270294     3.074956695     0.030367847       N   1  *****    0.915162
   36   N36       -1.073888220    -0.619839954    -2.652938933       N   1  *****    0.871932
   37   O37        0.138561689    -0.772914215    -2.291616551       O   1  *****   -0.576566
   38   O38       -1.825213489    -0.028088534    -1.807582659       O   1  *****   -0.559367
   39   O39        0.255811076     2.401877897     1.044522996       O   1  *****   -0.602872
   40   O40       -0.435108967     2.378039578    -1.006411147       O   1  *****   -0.610506
   41   O41        1.812936399     0.064235993     1.823004094       O   1  *****   -0.568417
   42   O42       -0.099277370    -0.793711111     2.322939879       O   1  *****   -0.576562
   43   O43        1.546320782    -0.925363833     3.750864341       O   1  *****   -0.447127
   44   O44       -0.237537452     4.280894149     0.046854136       O   1  *****   -0.420868
   45   O45       -1.491336771    -1.024364779    -3.720871340       O   1  *****   -0.445998
   46   H46       -0.890886716    -5.374543843     0.614709782       H   1  *****    0.166727
   47   H47       -3.295034050    -5.191762920     1.190774007       H   1  *****    0.119990
   48   H48       -4.413594554    -2.965326590     1.074348379       H   1  *****    0.198302
   49   H49        3.333801902    -5.154693477    -1.219640500       H   1  *****    0.120517
   50   H50        0.942166002    -5.362396374    -0.600917354       H   1  *****    0.165597
   51   H51        4.431342208    -2.918690966    -1.117148185       H   1  *****    0.198577
   52   H52       -6.096710950    -1.275864212    -0.438709335       H   1  *****    0.203137
   53   H53       -4.603119897    -1.970782553    -1.122622564       H   1  *****    0.193385
   54   H54       -5.283248067    -0.498630924    -1.816279493       H   1  *****    0.221275
   55   H55        6.150871494    -1.249699114     0.277782725       H   1  *****    0.206101
   56   H56        4.706459119    -1.960255192     1.045142181       H   1  *****    0.200125
   57   H57        5.428552106    -0.495612997     1.715736458       H   1  *****    0.226023
   58   H58       -7.129074546     3.068891702     1.534076280       H   1  *****    0.119662
   59   H59       -5.913741658     4.830019502     0.278899821       H   1  *****    0.135104
   60   H60       -3.930170444     4.229296482    -1.088881232       H   1  *****    0.127144
   61   H61       -3.176198067     1.874830252    -1.219125748       H   1  *****    0.204851
   62   H62       -6.347491891     0.713763385     1.428667749       H   1  *****    0.164146
   63   H63        6.852301792     3.219424719    -1.816984828       H   1  *****    0.121246
   64   H64        6.110591506     0.849304113    -1.725096871       H   1  *****    0.160714
   65   H65        3.417273904     1.799400637     1.472601303       H   1  *****    0.201219
   66   H66        4.141429667     4.175346963     1.374790801       H   1  *****    0.126970
   67   H67        5.863995090     4.882221102    -0.264812896       H   1  *****    0.135369


@<TRIPOS>BOND
    1      1      2    2
    2      1      6    1
    3      2      3    1
    4      3      4    2
    5      4      5    1
    6      5      6    2
    7      6      7    1
    8      9      7    2
    9      7     10    1
   10      8      9    1
   11      8     12    2
   12     10     11    2
   13     11     12    1
   14      4     13    1
   15     11     14    1
   16     14     15    1
   17     13     16    2
   18     13     17    1
   19     17     18    1
   20     17     19    1
   21     14     20    2
   22     15     21    1
   23     15     22    1
   24     26     19    2
   25     19     27    1
   26     23     24    1
   27     23     27    2
   28     24     25    2
   29     25     26    1
   30     29     22    2
   31     22     30    1
   32     28     29    1
   33     28     32    2
   34     30     31    2
   35     31     32    1
   36      5     33    1
   37     16     33    1
   38     10     33    1
   39     20     33    1
   40     36     37    2
   41     36     38    2
   42     35     39    2
   43     35     40    2
   44     34     41    2
   45     34     42    2
   46     34     43    1
   47     35     44    1
   48     36     45    1
   49     37     33    1
   50     39     33    1
   51     40     33    1
   52     42     33    1
   53     41     33    1
   54     38     33    1
   55      1     46    1
   56      2     47    1
   57      3     48    1
   58      8     49    1
   59      9     50    1
   60     12     51    1
   61     18     52    1
   62     18     53    1
   63     18     54    1
   64     21     55    1
   65     21     56    1
   66     21     57    1
   67     23     58    1
   68     24     59    1
   69     25     60    1
   70     26     61    1
   71     27     62    1
   72     28     63    1
   73     29     64    1
   74     30     65    1
   75     31     66    1
   76     32     67    1
#
#	File Created by: Spartan '14 Export
#

@<TRIPOS>MOLECULE
*****
83 92
SMALL
USER_CHARGES


@<TRIPOS>ATOM
    1   C1        -1.485519160    -5.072420825     0.520940036     C.2   1  *****   -0.315679
    2   C2        -2.838181251    -4.963103758     0.805233868     C.2   1  *****    0.092152
    3   C3        -3.463460396    -3.725212306     0.703062224     C.2   1  *****   -0.419510
    4   C4        -2.695629958    -2.628386241     0.322193180     C.2   1  *****    0.601337
    5   N5        -1.388021662    -2.736305611     0.080719984       N   1  *****   -0.554298
    6   C6        -0.780414999    -3.922057180     0.158763577     C.2   1  *****    0.316579
    7   C7         0.674745128    -3.921142104    -0.128930370     C.2   1  *****    0.349277
    8   C8         2.729098996    -4.964638379    -0.782876156     C.2   1  *****    0.108443
    9   C9         1.379120617    -5.073254668    -0.484982246     C.2   1  *****   -0.335385
   10   N10        1.280689217    -2.732524908    -0.065190027       N   1  *****   -0.612514
   11   C11        2.585392603    -2.625766601    -0.318942243     C.2   1  *****    0.662791
   12   C12        3.351742624    -3.724748226    -0.698363057     C.2   1  *****   -0.446816
   13   C13       -3.167446205    -1.193204415     0.305088467     C.2   1  *****    0.282919
   14   C14        3.067218438    -1.193186808    -0.319106081     C.2   1  *****    0.255387
   15   N15        4.298758299    -0.876878013     0.115772740     N.3   1  *****   -0.115519
   16   O16       -2.370590852    -0.351283825     0.745711959       O   1  *****   -0.518156
   17   N17       -4.391581698    -0.854600568    -0.131317221     N.3   1  *****   -0.112099
   18   C18       -5.243248861    -1.699260152    -0.959879468     C.3   1  *****   -0.646467
   19   C19       -4.734936870     0.544124287    -0.083189588     C.2   1  *****    0.432442
   20   O20        2.284782734    -0.345854178    -0.773257804       O   1  *****   -0.517463
   21   C21        5.114135349    -1.725383391     0.978523449     C.3   1  *****   -0.635618
   22   C22        4.703631857     0.502855728     0.040470330     C.2   1  *****    0.447367
   23   C23       -5.952242759     2.358114527     0.929707380     C.2   1  *****   -0.226850
   24   C24       -5.327773648     3.288635715     0.074628900     C.2   1  *****    0.229451
   25   C25       -4.407135639     2.791205909    -0.872348507     C.2   1  *****   -0.213994
   26   C26       -4.119289243     1.441214708    -0.952271613     C.2   1  *****   -0.321442
   27   C27       -5.651954558     1.006210202     0.850222759     C.2   1  *****   -0.317816
   28   C28        6.093123162     2.210574142    -0.938279737     C.2   1  *****   -0.220731
   29   C29        5.679980398     0.888779955    -0.867552258     C.2   1  *****   -0.322815
   30   C30        4.132478179     1.451650536     0.884107930     C.2   1  *****   -0.325131
   31   C31        4.535476554     2.773473380     0.814651946     C.2   1  *****   -0.204796
   32   C32        5.532779044     3.189934799    -0.093292662     C.2   1  *****    0.197099
   33   Nd33      -0.057061059    -0.458716252    -0.020435787      Nd   1  *****    1.903457
   34   N34        0.921071050    -1.182405133     2.704484298       N   1  *****    0.901370
   35   N35       -0.227937802     2.417546538    -0.028543329       N   1  *****    0.930350
   36   N36       -1.005229647    -1.293608016    -2.731262998       N   1  *****    0.888437
   37   O37        0.183534795    -1.471478668    -2.308276343       O   1  *****   -0.580202
   38   O38       -1.785516130    -0.683639639    -1.926843600       O   1  *****   -0.578480
   39   O39        0.068805662     1.752537259     1.023924618       O   1  *****   -0.603989
   40   O40       -0.387547373     1.720464984    -1.091056975       O   1  *****   -0.605179
   41   O41        1.664157801    -0.558579325     1.872806615       O   1  *****   -0.578924
   42   O42       -0.256247378    -1.439712796     2.295169658       O   1  *****   -0.583678
   43   O43        1.319778552    -1.519773674     3.802859605       O   1  *****   -0.456630
   44   O44       -0.352474963     3.623225572    -0.021052015       O   1  *****   -0.445731
   45   O45       -1.375229781    -1.691472103    -3.819662625       O   1  *****   -0.453744
   46   N46       -5.595172212     4.639250555     0.160017440     N.3   1  *****    0.021526
   47   N47        5.942061929     4.505510056    -0.150171035     N.3   1  *****    0.052156
   48   C48        6.822763050     4.930208467    -1.213144392     C.3   1  *****   -0.477816
   49   C49        5.208925615     5.510291951     0.588087971     C.3   1  *****   -0.512134
   50   C50       -4.735957019     5.570119596    -0.542482069     C.3   1  *****   -0.516703
   51   C51       -6.399174566     5.133999687     1.252996507     C.3   1  *****   -0.498738
   52   H52       -0.980657025    -6.025617041     0.618931322       H   1  *****    0.163322
   53   H53       -3.401442789    -5.835035803     1.119911645       H   1  *****    0.118463
   54   H54       -4.513415622    -3.611187784     0.943094004       H   1  *****    0.196940
   55   H55        3.291040413    -5.838472778    -1.094621229       H   1  *****    0.117021
   56   H56        0.874805007    -6.028008491    -0.569585192       H   1  *****    0.166657
   57   H57        4.399197016    -3.609517297    -0.948612018       H   1  *****    0.200303
   58   H58       -6.195623097    -1.903678607    -0.460443499       H   1  *****    0.205402
   59   H59       -4.748112805    -2.638440104    -1.200180156       H   1  *****    0.199254
   60   H60       -5.446380221    -1.172350711    -1.894966482       H   1  *****    0.226815
   61   H61        6.071732897    -1.960533429     0.503514314       H   1  *****    0.202070
   62   H62        4.593034865    -2.648181873     1.226046624       H   1  *****    0.196281
   63   H63        5.309322702    -1.184918658     1.907642598       H   1  *****    0.224551
   64   H64       -6.653955466     2.689382010     1.683649735       H   1  *****    0.153746
   65   H65       -3.885641448     3.466178780    -1.537138452       H   1  *****    0.164577
   66   H66       -3.383232753     1.081536462    -1.663544603       H   1  *****    0.206758
   67   H67       -6.116051679     0.310518019     1.542877616       H   1  *****    0.160190
   68   H68        6.845401767     2.478190880    -1.668490845       H   1  *****    0.154473
   69   H69        6.111118082     0.154721613    -1.541675053       H   1  *****    0.160859
   70   H70        3.350718744     1.154855047     1.575883733       H   1  *****    0.203159
   71   H71        4.050785280     3.489486324     1.465008390       H   1  *****    0.162450
   72   H72        7.047067932     5.990197133    -1.090484351       H   1  *****    0.181618
   73   H73        7.774284161     4.386741669    -1.179860138       H   1  *****    0.138020
   74   H74        6.385624736     4.786497703    -2.212896481       H   1  *****    0.158018
   75   H75        5.684865383     6.479836020     0.438805197       H   1  *****    0.188488
   76   H76        5.223100708     5.298426197     1.662758814       H   1  *****    0.148470
   77   H77        4.158542862     5.588775908     0.272238163       H   1  *****    0.175410
   78   H78       -5.044245693     6.588383582    -0.304129351       H   1  *****    0.192176
   79   H79       -4.819062673     5.445024454    -1.628070772       H   1  *****    0.149386
   80   H80       -3.677802672     5.455147251    -0.268236639       H   1  *****    0.188796
   81   H81       -6.538119013     6.209415998     1.137013838       H   1  *****    0.189102
   82   H82       -7.393331286     4.673408737     1.249607634       H   1  *****    0.144157
   83   H83       -5.943694847     4.950332263     2.238483968       H   1  *****    0.165576


@<TRIPOS>BOND
    1      1      2    2
    2      1      6    1
    3      2      3    1
    4      3      4    2
    5      4      5    1
    6      5      6    2
    7      6      7    1
    8      9      7    2
    9      7     10    1
   10      8      9    1
   11      8     12    2
   12     10     11    2
   13     11     12    1
   14      4     13    1
   15     11     14    1
   16     14     15    1
   17     13     16    2
   18     13     17    1
   19     17     18    1
   20     17     19    1
   21     14     20    2
   22     15     21    1
   23     15     22    1
   24     26     19    2
   25     19     27    1
   26     23     24    1
   27     23     27    2
   28     24     25    2
   29     25     26    1
   30     29     22    2
   31     22     30    1
   32     28     29    1
   33     28     32    2
   34     30     31    2
   35     31     32    1
   36      5     33    1
   37     16     33    1
   38     10     33    1
   39     20     33    1
   40     36     37    2
   41     36     38    2
   42     35     39    2
   43     35     40    2
   44     34     41    2
   45     34     42    2
   46     34     43    1
   47     35     44    1
   48     36     45    1
   49     37     33    1
   50     39     33    1
   51     40     33    1
   52     42     33    1
   53     41     33    1
   54     38     33    1
   55     24     46    1
   56     32     47    1
   57     47     48    1
   58     47     49    1
   59     46     50    1
   60     46     51    1
   61      1     52    1
   62      2     53    1
   63      3     54    1
   64      8     55    1
   65      9     56    1
   66     12     57    1
   67     18     58    1
   68     18     59    1
   69     18     60    1
   70     21     61    1
   71     21     62    1
   72     21     63    1
   73     23     64    1
   74     25     65    1
   75     26     66    1
   76     27     67    1
   77     28     68    1
   78     29     69    1
   79     30     70    1
   80     31     71    1
   81     48     72    1
   82     48     73    1
   83     48     74    1
   84     49     75    1
   85     49     76    1
   86     49     77    1
   87     50     78    1
   88     50     79    1
   89     50     80    1
   90     51     81    1
   91     51     82    1
   92     51     83    1
#
#	File Created by: Spartan '14 Export
#

@<TRIPOS>MOLECULE
*****
75 84
SMALL
USER_CHARGES


@<TRIPOS>ATOM
    1   C1        -1.378252784    -4.841951457     0.476947924     C.2   1  *****   -0.326992
    2   C2        -2.730797865    -4.752260375     0.769274229     C.2   1  *****    0.100577
    3   C3        -3.371423564    -3.521972675     0.676193665     C.2   1  *****   -0.435105
    4   C4        -2.618920629    -2.413778257     0.296526891     C.2   1  *****    0.638194
    5   N5        -1.311609508    -2.501210575     0.050450852       N   1  *****   -0.585479
    6   C6        -0.689676961    -3.680707655     0.119082229     C.2   1  *****    0.339129
    7   C7         0.764120177    -3.660630599    -0.171456880     C.2   1  *****    0.325253
    8   C8         2.831749750    -4.673264074    -0.831490928     C.2   1  *****    0.100911
    9   C9         1.482302082    -4.800728099    -0.539043166     C.2   1  *****   -0.323199
   10   N10        1.355387704    -2.465873020    -0.094046471       N   1  *****   -0.585057
   11   C11        2.659704741    -2.342297834    -0.340439407     C.2   1  *****    0.624500
   12   C12        3.440314220    -3.427638565    -0.729200881     C.2   1  *****   -0.426847
   13   C13       -3.120790031    -0.989289734     0.283830554     C.2   1  *****    0.265532
   14   C14        3.125787109    -0.905775038    -0.316619297     C.2   1  *****    0.279717
   15   N15        4.354632969    -0.586544354     0.125787288     N.3   1  *****   -0.103539
   16   O16       -2.354989819    -0.125934549     0.734039633       O   1  *****   -0.513433
   17   N17       -4.355865653    -0.694846865    -0.158042379     N.3   1  *****   -0.097034
   18   C18       -5.150973238    -1.555946024    -1.027550635     C.3   1  *****   -0.622705
   19   C19       -4.780439484     0.679869019    -0.091530293     C.2   1  *****    0.335399
   20   O20        2.339296929    -0.057010541    -0.758744006       O   1  *****   -0.518251
   21   C21        5.170206685    -1.436251110     0.987663515     C.3   1  *****   -0.623434
   22   C22        4.749559972     0.797184417     0.067142343     C.2   1  *****    0.343322
   23   C23       -6.210659706     2.362987971     0.872594514     C.2   1  *****   -0.281962
   24   C24       -5.662927629     3.313006262     0.009573114     C.2   1  *****    0.437834
   25   C25       -4.668189370     2.936347006    -0.901402850     C.2   1  *****   -0.319628
   26   C26       -4.228033907     1.627182976    -0.955983588     C.2   1  *****   -0.200535
   27   C27       -5.761126705     1.046211378     0.816124776     C.2   1  *****   -0.260664
   28   C28        4.593585725     3.044926418     0.893466496     C.2   1  *****   -0.321893
   29   C29        4.180337765     1.726688383     0.939948244     C.2   1  *****   -0.201644
   30   C30        5.719775630     1.189772280    -0.840867134     C.2   1  *****   -0.267614
   31   C31        6.142162705     2.515778838    -0.889295872     C.2   1  *****   -0.281008
   32   C32        5.577807182     3.448073394    -0.017615117     C.2   1  *****    0.440305
   33   Nd33      -0.007952833    -0.202548670    -0.013637230      Nd   1  *****    1.898170
   34   N34        0.965481404    -0.978341287     2.698780579       N   1  *****    0.908300
   35   N35       -0.062034610     2.669095027     0.001331305       N   1  *****    0.900927
   36   N36       -0.954931843    -0.987961550    -2.733040198       N   1  *****    0.899344
   37   O37        0.234625925    -1.174223713    -2.316685674       O   1  *****   -0.580623
   38   O38       -1.733084077    -0.392642505    -1.914166328       O   1  *****   -0.583340
   39   O39        0.174467499     1.980652036     1.056501102       O   1  *****   -0.597982
   40   O40       -0.271039543     1.983561453    -1.061804102       O   1  *****   -0.599120
   41   O41        1.721409511    -0.349938009     1.883438621       O   1  *****   -0.586560
   42   O42       -0.217050205    -1.203492224     2.282078634       O   1  *****   -0.585273
   43   O43        1.354493428    -1.350259668     3.789227609       O   1  *****   -0.456857
   44   O44       -0.086366734     3.878408398     0.008015637       O   1  *****   -0.413565
   45   O45       -1.329358517    -1.365537612    -3.826656341       O   1  *****   -0.454528
   46   O46       -6.024801923     4.618135720    -0.021467729     O.3   1  *****   -0.279416
   47   O47        5.913600368     4.760015721     0.021980557     O.3   1  *****   -0.280836
   48   C48        6.854786469     5.238633632    -0.913514373     C.3   1  *****   -0.309414
   49   C49       -6.973340794     5.072925164     0.918415504     C.3   1  *****   -0.301846
   50   H50       -0.860318682    -5.789034351     0.565807775       H   1  *****    0.166348
   51   H51       -3.281172821    -5.633095290     1.081810436       H   1  *****    0.119414
   52   H52       -4.422055913    -3.421257206     0.919471970       H   1  *****    0.197344
   53   H53        3.404671065    -5.536872561    -1.151574373       H   1  *****    0.118608
   54   H54        0.989264022    -5.760204329    -0.635531863       H   1  *****    0.165678
   55   H55        4.487812303    -3.298293908    -0.972344256       H   1  *****    0.194992
   56   H56       -6.108271766    -1.806855164    -0.560286115       H   1  *****    0.200942
   57   H57       -4.611576173    -2.469439450    -1.269729706       H   1  *****    0.193713
   58   H58       -5.346756535    -1.020285777    -1.959404353       H   1  *****    0.223199
   59   H59        6.127881873    -1.671482163     0.512988384       H   1  *****    0.200743
   60   H60        4.647150457    -2.358541535     1.232487794       H   1  *****    0.195713
   61   H61        5.364559665    -0.898876751     1.918782126       H   1  *****    0.223479
   62   H62       -6.972354178     2.632274638     1.592981205       H   1  *****    0.160357
   63   H63       -4.242670879     3.694783966    -1.548344582       H   1  *****    0.184724
   64   H64       -3.442242326     1.334543039    -1.644815709       H   1  *****    0.192803
   65   H65       -6.171884479     0.305738043     1.495338766       H   1  *****    0.158877
   66   H66        4.155219962     3.790059428     1.547252546       H   1  *****    0.186199
   67   H67        3.402896858     1.412249040     1.628654201       H   1  *****    0.192149
   68   H68        6.143393220     0.462375501    -1.526265434       H   1  *****    0.160883
   69   H69        6.895810728     2.806073671    -1.609991800       H   1  *****    0.160646
   70   H70        6.959872462     6.305397916    -0.715518354       H   1  *****    0.176603
   71   H71        7.830514838     4.751624532    -0.791984385       H   1  *****    0.129856
   72   H72        6.506994162     5.094928857    -1.943801654       H   1  *****    0.142550
   73   H73       -7.097871648     6.139020060     0.728201814       H   1  *****    0.174590
   74   H74       -7.940437827     4.569437738     0.794674613       H   1  *****    0.127032
   75   H75       -6.621677703     4.928152470     1.947258370       H   1  *****    0.140526


@<TRIPOS>BOND
    1      1      2    2
    2      1      6    1
    3      2      3    1
    4      3      4    2
    5      4      5    1
    6      5      6    2
    7      6      7    1
    8      9      7    2
    9      7     10    1
   10      8      9    1
   11      8     12    2
   12     10     11    2
   13     11     12    1
   14      4     13    1
   15     11     14    1
   16     14     15    1
   17     13     16    2
   18     13     17    1
   19     17     18    1
   20     17     19    1
   21     14     20    2
   22     15     21    1
   23     15     22    1
   24     26     19    2
   25     19     27    1
   26     23     24    1
   27     23     27    2
   28     24     25    2
   29     25     26    1
   30     29     22    2
   31     22     30    1
   32     28     29    1
   33     28     32    2
   34     30     31    2
   35     31     32    1
   36      5     33    1
   37     16     33    1
   38     10     33    1
   39     20     33    1
   40     36     37    2
   41     36     38    2
   42     35     39    2
   43     35     40    2
   44     34     41    2
   45     34     42    2
   46     34     43    1
   47     35     44    1
   48     36     45    1
   49     37     33    1
   50     39     33    1
   51     40     33    1
   52     42     33    1
   53     41     33    1
   54     38     33    1
   55     24     46    1
   56     32     47    1
   57     47     48    1
   58     46     49    1
   59      1     50    1
   60      2     51    1
   61      3     52    1
   62      8     53    1
   63      9     54    1
   64     12     55    1
   65     18     56    1
   66     18     57    1
   67     18     58    1
   68     21     59    1
   69     21     60    1
   70     21     61    1
   71     23     62    1
   72     25     63    1
   73     26     64    1
   74     27     65    1
   75     28     66    1
   76     29     67    1
   77     30     68    1
   78     31     69    1
   79     48     70    1
   80     48     71    1
   81     48     72    1
   82     49     73    1
   83     49     74    1
   84     49     75    1
#
#	File Created by: Spartan '14 Export
#

@<TRIPOS>MOLECULE
*****
71 80
SMALL
USER_CHARGES


@<TRIPOS>ATOM
    1   C1        -1.406258396    -5.005078533     0.527530553     C.2   1  *****   -0.309093
    2   C2        -2.758553415    -4.907745234     0.821608001     C.2   1  *****    0.086651
    3   C3        -3.387666262    -3.671138946     0.744841277     C.2   1  *****   -0.401314
    4   C4        -2.619974375    -2.567258399     0.385367491     C.2   1  *****    0.591420
    5   N5        -1.314181399    -2.658788691     0.135087516       N   1  *****   -0.556053
    6   C6        -0.705297093    -3.847860959     0.181724597     C.2   1  *****    0.317448
    7   C7         0.744620213    -3.841335497    -0.120405661     C.2   1  *****    0.327005
    8   C8         2.809031572    -4.884434543    -0.751770193     C.2   1  *****    0.091122
    9   C9         1.458145513    -4.993993929    -0.455534979     C.2   1  *****   -0.315131
   10   N10        1.340348099    -2.645179977    -0.085592829       N   1  *****   -0.567822
   11   C11        2.644872671    -2.541601865    -0.337832961     C.2   1  *****    0.599407
   12   C12        3.424420955    -3.640261061    -0.687546391     C.2   1  *****   -0.405433
   13   C13       -3.101776055    -1.139417725     0.416030493     C.2   1  *****    0.249261
   14   C14        3.111105131    -1.108921398    -0.382058412     C.2   1  *****    0.247453
   15   N15        4.307769871    -0.764208111     0.158478272     N.3   1  *****   -0.191673
   16   O16       -2.361294998    -0.324442753     0.974381681       O   1  *****   -0.428455
   17   N17       -4.302936314    -0.812983892    -0.126090662     N.3   1  *****   -0.195939
   18   C18       -4.821619464    -1.573714190    -1.269529943     C.3   1  *****   -0.579069
   19   C19       -4.742707565     0.538617037     0.006305427     C.2   1  *****    0.454539
   20   O20        2.362399743    -0.307446529    -0.948996424       O   1  *****   -0.426303
   21   C21        4.834251584    -1.509922925     1.308252044     C.3   1  *****   -0.586934
   22   C22        4.731881931     0.591422488     0.016022054     C.2   1  *****    0.453943
   23   C23       -5.533126914     2.586430373    -0.986040690     C.2   1  *****   -0.120772
   24   C24       -5.682781669     3.111646966     0.288673145     C.2   1  *****   -0.046628
   25   C25       -5.357221314     2.383643070     1.426697848     C.2   1  *****   -0.033769
   26   C26       -4.887526484     1.090264012     1.281453379     C.2   1  *****   -0.361189
   27   C27       -5.056382983     1.291455947    -1.125803461     C.2   1  *****   -0.242954
   28   C28        5.330024320     2.431607381    -1.417530721     C.2   1  *****   -0.032681
   29   C29        4.874866541     1.134073165    -1.263179929     C.2   1  *****   -0.364042
   30   C30        5.032285008     1.357342612     1.142921155     C.2   1  *****   -0.239843
   31   C31        5.494333614     2.656580034     0.994071856     C.2   1  *****   -0.125294
   32   C32        5.642878636     3.172790421    -0.284484747     C.2   1  *****   -0.047064
   33   Nd33       0.000493967    -0.357595549     0.012016257      Nd   1  *****    1.864121
   34   N34       -1.226390730    -1.099556667    -2.576760782       N   1  *****    0.894037
   35   N35        1.233974666    -1.054872637     2.610441504       N   1  *****    0.895259
   36   N36       -0.015519306     2.496080393    -0.011741580       N   1  *****    0.888909
   37   O37        0.244336000     1.799459844    -1.058211608       O   1  *****   -0.598641
   38   O38       -0.268025148     1.813520495     1.045942379       O   1  *****   -0.597481
   39   O39        0.025560916    -1.331051521     2.335581930       O   1  *****   -0.576632
   40   O40        1.853598013    -0.357457058     1.731627708       O   1  *****   -0.580864
   41   O41       -1.852967317    -0.397500132    -1.706562921       O   1  *****   -0.578629
   42   O42       -0.015405185    -1.360737923    -2.298467420       O   1  *****   -0.575881
   43   O43       -1.775332879    -1.505502564    -3.583524960       O   1  *****   -0.441510
   44   O44        1.786960782    -1.443130655     3.621970423       O   1  *****   -0.441123
   45   O45       -0.022049616     3.703001632    -0.021314305       O   1  *****   -0.391247
   46   N46       -6.204629139     4.470181160     0.438933127       N   1  *****    0.712062
   47   N47        6.149638738     4.535950651    -0.444210745       N   1  *****    0.714622
   48   O48        6.277485690     4.963491805    -1.585950569     O.2   1  *****   -0.406958
   49   O49        6.422901448     5.162676000     0.573533195     O.2   1  *****   -0.401489
   50   O50       -6.489643889     5.084843913    -0.582923478     O.2   1  *****   -0.400910
   51   O51       -6.332417561     4.906083156     1.577511980     O.2   1  *****   -0.406006
   52   H52       -0.899650610    -5.959142706     0.602562118       H   1  *****    0.166487
   53   H53       -3.316391005    -5.788343577     1.120914002       H   1  *****    0.125027
   54   H54       -4.437888030    -3.558952351     0.987175373       H   1  *****    0.195917
   55   H55        3.376391288    -5.761623718    -1.043112831       H   1  *****    0.124378
   56   H56        0.962157389    -5.954313288    -0.520962076       H   1  *****    0.167594
   57   H57        4.473121022    -3.518762418    -0.931982315       H   1  *****    0.196021
   58   H58       -5.868859278    -1.310834246    -1.415105593       H   1  *****    0.206133
   59   H59       -4.757207726    -2.642189634    -1.078213388       H   1  *****    0.195247
   60   H60       -4.241350750    -1.346327912    -2.169106107       H   1  *****    0.207969
   61   H61        5.877725305    -1.232455759     1.453754398       H   1  *****    0.208393
   62   H62        4.784263652    -2.580475017     1.124353584       H   1  *****    0.196863
   63   H63        4.249489843    -1.283652207     2.205201782       H   1  *****    0.209226
   64   H64       -5.778054325     3.195041355    -1.846363178       H   1  *****    0.157292
   65   H65       -5.482572987     2.834795453     2.402002334       H   1  *****    0.143995
   66   H66       -4.629619558     0.504911674     2.155003442       H   1  *****    0.207351
   67   H67       -4.901369063     0.882042041    -2.115888349       H   1  *****    0.184487
   68   H68        5.453830248     2.876050580    -2.396105519       H   1  *****    0.144329
   69   H69        4.626991862     0.538463404    -2.132708034       H   1  *****    0.207643
   70   H70        4.878185830     0.954465661     2.135833627       H   1  *****    0.184416
   71   H71        5.728827538     3.275205797     1.850150528       H   1  *****    0.158801


@<TRIPOS>BOND
    1      1      2    2
    2      1      6    1
    3      2      3    1
    4      3      4    2
    5      4      5    1
    6      5      6    2
    7      6      7    1
    8      9      7    2
    9      7     10    1
   10      8      9    1
   11      8     12    2
   12     10     11    2
   13     11     12    1
   14      4     13    1
   15     11     14    1
   16     14     15    1
   17     13     16    2
   18     13     17    1
   19     17     18    1
   20     17     19    1
   21     14     20    2
   22     15     21    1
   23     15     22    1
   24     26     19    2
   25     19     27    1
   26     23     24    1
   27     23     27    2
   28     24     25    2
   29     25     26    1
   30     29     22    2
   31     22     30    1
   32     28     29    1
   33     28     32    2
   34     30     31    2
   35     31     32    1
   36      5     33    1
   37     16     33    1
   38     10     33    1
   39     20     33    1
   40     36     37    2
   41     36     38    2
   42     35     39    2
   43     35     40    2
   44     34     41    2
   45     34     42    2
   46     34     43    1
   47     35     44    1
   48     36     45    1
   49     37     33    1
   50     39     33    1
   51     40     33    1
   52     42     33    1
   53     41     33    1
   54     38     33    1
   55     24     46    1
   56     32     47    1
   57     47     48    2
   58     47     49    2
   59     46     50    2
   60     46     51    2
   61      1     52    1
   62      2     53    1
   63      3     54    1
   64      8     55    1
   65      9     56    1
   66     12     57    1
   67     18     58    1
   68     18     59    1
   69     18     60    1
   70     21     61    1
   71     21     62    1
   72     21     63    1
   73     23     64    1
   74     25     65    1
   75     26     66    1
   76     27     67    1
   77     28     68    1
   78     29     69    1
   79     30     70    1
   80     31     71    1
#
#	File Created by: Spartan '14 Export
#

@<TRIPOS>MOLECULE
*****
65 77
SMALL
USER_CHARGES


@<TRIPOS>ATOM
    1   C1         0.678506081    -4.498000563    -0.002603002     C.2   1  *****   -0.225409
    2   C2        -0.678783168    -4.497846247     0.002083607     C.2   1  *****   -0.225106
    3   C3        -1.425799741    -3.272077475     0.003689948     C.2   1  *****    0.131759
    4   C4        -0.720176467    -2.042021613     0.004839911     C.2   1  *****    0.218928
    5   C5         0.720607951    -2.042173496    -0.004920661     C.2   1  *****    0.217096
    6   C6         1.425866286    -3.272377620    -0.003858598     C.2   1  *****    0.132017
    7   C7         2.820435382    -3.216777087    -0.006771917     C.2   1  *****   -0.173913
    8   N8         1.343610640    -0.865299459     0.000000071       N   1  *****   -0.461826
    9   C9         2.666872742    -0.835793182     0.053946823     C.2   1  *****    0.241644
   10   C10        3.480468707    -1.987805760     0.029001403     C.2   1  *****   -0.025872
   11   C11       -2.820359741    -3.216206080     0.006840861     C.2   1  *****   -0.174680
   12   C12       -3.480078003    -1.987089365    -0.028638640     C.2   1  *****   -0.023777
   13   C13       -2.666161593    -0.835259298    -0.053457069     C.2   1  *****    0.239740
   14   N14       -1.342906807    -0.865006143     0.000047589       N   1  *****   -0.463057
   15   C15        4.921314756    -1.803934304     0.038970612     C.2   1  *****   -0.025436
   16   C16        3.233148857     0.513952174     0.217904050     C.2   1  *****    0.396304
   17   N17        4.597544252     0.615543015     0.243764553     N.3   1  *****   -0.057855
   18   C18        5.445484869    -0.492561460     0.136201380     C.2   1  *****    0.144563
   19   C19       -4.920905820    -1.802885967    -0.038785718     C.2   1  *****   -0.027032
   20   C20       -5.444747872    -0.491394328    -0.135750381     C.2   1  *****    0.146254
   21   N21       -4.596489988     0.616508341    -0.243374919     N.3   1  *****   -0.059336
   22   C22       -3.232076518     0.514493822    -0.218118320     C.2   1  *****    0.397713
   23   C23       -5.816209306    -2.877107221     0.052810505     C.2   1  *****   -0.109269
   24   C24       -7.184392882    -2.684171475     0.052186537     C.2   1  *****   -0.153480
   25   C25       -7.690008009    -1.388924251    -0.040704389     C.2   1  *****   -0.085749
   26   C26       -6.833509678    -0.305479410    -0.133483154     C.2   1  *****   -0.183734
   27   C27        7.184502158    -2.685673386    -0.052905826     C.2   1  *****   -0.153944
   28   C28        5.816293984    -2.878332598    -0.053230432     C.2   1  *****   -0.109494
   29   C29        6.834250487    -0.306939290     0.133791870     C.2   1  *****   -0.182884
   30   C30        7.690436306    -1.390554775     0.040400893     C.2   1  *****   -0.085667
   31   O31       -2.499438913     1.494533554    -0.361930937       O   1  *****   -0.414588
   32   O32        2.500898343     1.494546545     0.359232106       O   1  *****   -0.415878
   33   C33       -5.154595376     1.955937161    -0.406801642     C.3   1  *****   -0.434412
   34   C34        5.155801860     1.954857607     0.407705933     C.3   1  *****   -0.433800
   35   Nd35       0.000715596     1.445953117    -0.000802504      Nd   1  *****    1.846533
   36   N36       -0.008344177     4.320360991     0.000625949       N   1  *****    0.894752
   37   N37       -0.545043095     0.864201316     2.829885341       N   1  *****    0.898185
   38   N38        0.549501640     0.863638190    -2.830566184       N   1  *****    0.897583
   39   O39        1.406882996     1.441741012    -2.082698767       O   1  *****   -0.610265
   40   O40       -0.555554339     0.560130362    -2.263055294       O   1  *****   -0.590883
   41   O41       -1.402825318     1.442534079     2.082736092       O   1  *****   -0.610118
   42   O42        0.559574939     0.560847942     2.261498604       O   1  *****   -0.590969
   43   O43       -0.636868241     3.633016531    -0.878884887       O   1  *****   -0.602224
   44   O44        0.621720370     3.635689706     0.881128438       O   1  *****   -0.601972
   45   O45        0.770500877     0.602414872    -3.995511242       O   1  *****   -0.439876
   46   O46       -0.765179525     0.603697529     3.995132743       O   1  *****   -0.440290
   47   O47       -0.010429108     5.530581399     0.000338107       O   1  *****   -0.417043
   48   H48       -7.854174034    -3.533455777     0.126629664       H   1  *****    0.137358
   49   H49        7.854067570    -3.535072660    -0.127937870       H   1  *****    0.137522
   50   H50        1.225374287    -5.435501448    -0.004343303       H   1  *****    0.167564
   51   H51       -1.225897406    -5.435207504     0.003614453       H   1  *****    0.167542
   52   H52        3.378111281    -4.146610716    -0.020365330       H   1  *****    0.155134
   53   H53       -3.378271510    -4.145900654     0.020302521       H   1  *****    0.155301
   54   H54       -5.427557107    -3.885757672     0.132967075       H   1  *****    0.127546
   55   H55       -8.761363566    -1.218957116    -0.039016734       H   1  *****    0.133185
   56   H56       -7.246501830     0.691100315    -0.201130543       H   1  *****    0.142488
   57   H57        5.427375592    -3.886852874    -0.133753777       H   1  *****    0.127648
   58   H58        7.247427040     0.689549136     0.201562740       H   1  *****    0.142257
   59   H59        8.761823456    -1.220825407     0.038452708       H   1  *****    0.133137
   60   H60       -5.776020085     1.996641231    -1.304066552       H   1  *****    0.170673
   61   H61       -4.322205409     2.647388457    -0.507742126       H   1  *****    0.195445
   62   H62       -5.750024587     2.226700298     0.468293795       H   1  *****    0.174237
   63   H63        5.750854435     2.225993603    -0.467509482       H   1  *****    0.174107
   64   H64        4.323550023     2.646349020     0.509608600       H   1  *****    0.195148
   65   H65        5.777633962     1.995037475     1.304722771       H   1  *****    0.170474


@<TRIPOS>BOND
    1      1      2    2
    2      1      6    1
    3      2      3    1
    4      4      5    1
    5      7      6    2
    6      5      6    1
    7      5      8    2
    8      7     10    1
    9      8      9    1
   10     14      4    2
   11      3      4    1
   12      3     11    2
   13     11     12    1
   14     13     14    1
   15     15     10    1
   16      9     10    2
   17      9     16    1
   18     16     17    1
   19     17     18    1
   20     22     13    1
   21     12     13    2
   22     12     19    1
   23     20     21    1
   24     21     22    1
   25     26     20    2
   26     19     20    1
   27     23     19    2
   28     23     24    1
   29     24     25    2
   30     25     26    1
   31     18     29    1
   32     15     18    2
   33     28     15    1
   34     27     28    2
   35     27     30    1
   36     29     30    2
   37     22     31    2
   38     16     32    2
   39     21     33    1
   40     17     34    1
   41     38     39    2
   42     38     40    2
   43     37     41    2
   44     37     42    2
   45     36     43    2
   46     36     44    2
   47     38     45    1
   48     37     46    1
   49     36     47    1
   50     14     35    1
   51     31     35    1
   52     39     35    1
   53     40     35    1
   54     41     35    1
   55     42     35    1
   56     43     35    1
   57     44     35    1
   58     32     35    1
   59      8     35    1
   60     24     48    1
   61     27     49    1
   62      1     50    1
   63      2     51    1
   64      7     52    1
   65     11     53    1
   66     23     54    1
   67     25     55    1
   68     26     56    1
   69     28     57    1
   70     29     58    1
   71     30     59    1
   72     33     60    1
   73     33     61    1
   74     33     62    1
   75     34     63    1
   76     34     64    1
   77     34     65    1
#
#	File Created by: Spartan '14 Export
#

@<TRIPOS>MOLECULE
*****
71 83
SMALL
USER_CHARGES


@<TRIPOS>ATOM
    1   C1         0.678800594     0.002115787     4.333227913     C.2   1  *****   -0.218809
    2   C2        -0.678800594    -0.002115787     4.333227913     C.2   1  *****   -0.218809
    3   C3        -1.426707968    -0.005946244     3.107617517     C.2   1  *****    0.122711
    4   C4        -0.720519998    -0.001338813     1.878320103     C.2   1  *****    0.218435
    5   C5         0.720519998     0.001338813     1.878320103     C.2   1  *****    0.218435
    6   C6         1.426707968     0.005946244     3.107617517     C.2   1  *****    0.122711
    7   C7         2.821241195     0.011600476     3.049499633     C.2   1  *****   -0.180534
    8   N8         1.342020865     0.012488883     0.700911423       N   1  *****   -0.465284
    9   C9         2.665011667     0.071460974     0.667824778     C.2   1  *****    0.218903
   10   C10        3.480008839     0.049968736     1.819596083     C.2   1  *****    0.024382
   11   C11       -2.821241195    -0.011600476     3.049499633     C.2   1  *****   -0.180534
   12   C12       -3.480008839    -0.049968736     1.819596083     C.2   1  *****    0.024382
   13   C13       -2.665011667    -0.071460974     0.667824778     C.2   1  *****    0.218903
   14   N14       -1.342020865    -0.012488883     0.700911423       N   1  *****   -0.465284
   15   C15        4.920301998     0.064694088     1.634094525     C.2   1  *****   -0.020017
   16   C16        3.228255431     0.232082690    -0.683984718     C.2   1  *****    0.395327
   17   N17        4.591546322     0.268241685    -0.785164259     N.3   1  *****   -0.002543
   18   C18        5.439328798     0.164786586     0.323764660     C.2   1  *****    0.070182
   19   C19       -4.920301998    -0.064694088     1.634094525     C.2   1  *****   -0.020017
   20   C20       -5.439328798    -0.164786586     0.323764660     C.2   1  *****    0.070182
   21   N21       -4.591546322    -0.268241685    -0.785164259     N.3   1  *****   -0.002543
   22   C22       -3.228255431    -0.232082690    -0.683984718     C.2   1  *****    0.395327
   23   C23       -5.817159505     0.026524055     2.707853263     C.2   1  *****   -0.294179
   24   C24       -7.191614765     0.025604545     2.537487147     C.2   1  *****    0.434185
   25   C25       -7.680152043    -0.075321637     1.229047763     C.2   1  *****   -0.319133
   26   C26       -6.828912821    -0.168375393     0.144445877     C.2   1  *****   -0.114416
   27   C27        7.191614765    -0.025604545     2.537487147     C.2   1  *****    0.434185
   28   C28        5.817159505    -0.026524055     2.707853263     C.2   1  *****   -0.294179
   29   C29        6.828912821     0.168375393     0.144445877     C.2   1  *****   -0.114416
   30   C30        7.680152043     0.075321637     1.229047763     C.2   1  *****   -0.319133
   31   O31       -2.494677212    -0.361991306    -1.666345703       O   1  *****   -0.425539
   32   O32        2.494677212     0.361991306    -1.666345703       O   1  *****   -0.425539
   33   C33       -5.151381832    -0.433962607    -2.123130570     C.3   1  *****   -0.463830
   34   C34        5.151381832     0.433962607    -2.123130570     C.3   1  *****   -0.463830
   35   Nd35       0.000000000     0.000000000    -1.598424649      Nd   1  *****    1.854500
   36   N36        0.000000000     0.000000000    -4.472391856       N   1  *****    0.897403
   37   N37       -0.539897732     2.833200934    -0.996616804       N   1  *****    0.911431
   38   N38        0.539897732    -2.833200934    -0.996616804       N   1  *****    0.911431
   39   O39        1.421508489    -2.077750288    -1.525802214       O   1  *****   -0.613441
   40   O40       -0.582896896    -2.274380640    -0.749936030       O   1  *****   -0.592850
   41   O41       -1.421508489     2.077750288    -1.525802214       O   1  *****   -0.613441
   42   O42        0.582896896     2.274380640    -0.749936030       O   1  *****   -0.592850
   43   O43       -0.535501964    -0.940474577    -3.786749040       O   1  *****   -0.604032
   44   O44        0.535501964     0.940474577    -3.786749040       O   1  *****   -0.604032
   45   O45        0.755041393    -3.998249326    -0.728599861       O   1  *****   -0.446763
   46   O46       -0.755041393     3.998249326    -0.728599861       O   1  *****   -0.446763
   47   O47        0.000000000     0.000000000    -5.682762248       O   1  *****   -0.418155
   48   C48       -8.130256742     0.138736401     3.704677099     C.3   1  *****   -0.821106
   49   C49        8.130256742    -0.138736401     3.704677099     C.3   1  *****   -0.821106
   50   H50        1.225618050     0.003952502     5.270807458       H   1  *****    0.165634
   51   H51       -1.225618050    -0.003952502     5.270807458       H   1  *****    0.165634
   52   H52        3.380809867     0.001466035     3.978211987       H   1  *****    0.151019
   53   H53       -3.380809867    -0.001466035     3.978211987       H   1  *****    0.151019
   54   H54       -5.424039110     0.108976293     3.715446629       H   1  *****    0.164457
   55   H55       -8.752464218    -0.078334985     1.057103963       H   1  *****    0.184854
   56   H56       -7.247687662    -0.240332573    -0.849600073       H   1  *****    0.141156
   57   H57        5.424039110    -0.108976293     3.715446629       H   1  *****    0.164457
   58   H58        7.247687662     0.240332573    -0.849600073       H   1  *****    0.141156
   59   H59        8.752464218     0.078334985     1.057103963       H   1  *****    0.184854
   60   H60       -5.749713565     0.439308629    -2.393664456       H   1  *****    0.178161
   61   H61       -4.320119205    -0.533795267    -2.816045793       H   1  *****    0.198212
   62   H62       -5.770813160    -1.332748030    -2.162002737       H   1  *****    0.173859
   63   H63        5.770813160     1.332748030    -2.162002737       H   1  *****    0.173859
   64   H64        4.320119205     0.533795267    -2.816045793       H   1  *****    0.198212
   65   H65        5.749713565    -0.439308629    -2.393664456       H   1  *****    0.178161
   66   H66       -8.834442972    -0.699506250     3.734776600       H   1  *****    0.223619
   67   H67       -8.726419454     1.056150169     3.648283165       H   1  *****    0.225343
   68   H68       -7.589336202     0.153182527     4.654039893       H   1  *****    0.213732
   69   H69        7.589336202    -0.153182527     4.654039893       H   1  *****    0.213732
   70   H70        8.726419454    -1.056150169     3.648283165       H   1  *****    0.225343
   71   H71        8.834442972     0.699506250     3.734776600       H   1  *****    0.223619


@<TRIPOS>BOND
    1      1      2    2
    2      1      6    1
    3      2      3    1
    4      4      5    1
    5      7      6    2
    6      5      6    1
    7      5      8    2
    8      7     10    1
    9      8      9    1
   10     14      4    2
   11      3      4    1
   12      3     11    2
   13     11     12    1
   14     13     14    1
   15     15     10    1
   16      9     10    2
   17      9     16    1
   18     16     17    1
   19     17     18    1
   20     22     13    1
   21     12     13    2
   22     12     19    1
   23     20     21    1
   24     21     22    1
   25     26     20    2
   26     19     20    1
   27     23     19    2
   28     23     24    1
   29     24     25    2
   30     25     26    1
   31     18     29    1
   32     15     18    2
   33     28     15    1
   34     27     28    2
   35     27     30    1
   36     29     30    2
   37     22     31    2
   38     16     32    2
   39     21     33    1
   40     17     34    1
   41     38     39    2
   42     38     40    2
   43     37     41    2
   44     37     42    2
   45     36     43    2
   46     36     44    2
   47     38     45    1
   48     37     46    1
   49     36     47    1
   50     14     35    1
   51     31     35    1
   52     39     35    1
   53     40     35    1
   54     41     35    1
   55     42     35    1
   56     43     35    1
   57     44     35    1
   58     32     35    1
   59      8     35    1
   60     24     48    1
   61     27     49    1
   62      1     50    1
   63      2     51    1
   64      7     52    1
   65     11     53    1
   66     23     54    1
   67     25     55    1
   68     26     56    1
   69     28     57    1
   70     29     58    1
   71     30     59    1
   72     33     60    1
   73     33     61    1
   74     33     62    1
   75     34     63    1
   76     34     64    1
   77     34     65    1
   78     48     66    1
   79     48     67    1
   80     48     68    1
   81     49     69    1
   82     49     70    1
   83     49     71    1
#
#	File Created by: Spartan '14 Export
#

@<TRIPOS>MOLECULE
*****
73 85
SMALL
USER_CHARGES


@<TRIPOS>ATOM
    1   C1         0.678827102    -0.004061637     4.209005321     C.2   1  *****   -0.214369
    2   C2        -0.678827102     0.004061637     4.209005321     C.2   1  *****   -0.214369
    3   C3        -1.425853341     0.010277048     2.983291737     C.2   1  *****    0.106104
    4   C4        -0.720439477     0.004076504     1.753747471     C.2   1  *****    0.227234
    5   C5         0.720439477    -0.004076504     1.753747471     C.2   1  *****    0.227234
    6   C6         1.425853341    -0.010277048     2.983291737     C.2   1  *****    0.106104
    7   C7         2.820681942    -0.020604436     2.924681970     C.2   1  *****   -0.153112
    8   N8         1.341623038    -0.019569408     0.575786912       N   1  *****   -0.472188
    9   C9         2.664141394    -0.083901349     0.542329884     C.2   1  *****    0.243107
   10   C10        3.477032452    -0.062707732     1.694946508     C.2   1  *****   -0.025822
   11   C11       -2.820681942     0.020604436     2.924681970     C.2   1  *****   -0.153112
   12   C12       -3.477032452     0.062707732     1.694946508     C.2   1  *****   -0.025822
   13   C13       -2.664141394     0.083901349     0.542329884     C.2   1  *****    0.243107
   14   N14       -1.341623038     0.019569408     0.575786912       N   1  *****   -0.472188
   15   C15        4.919031608    -0.082419312     1.511514053     C.2   1  *****    0.082419
   16   C16        3.227138270    -0.251900122    -0.809936043     C.2   1  *****    0.369877
   17   N17        4.588024585    -0.299922033    -0.910128593     N.3   1  *****    0.023939
   18   C18        5.439425921    -0.193740170     0.199260848     C.2   1  *****    0.004883
   19   C19       -4.919031608     0.082419312     1.511514053     C.2   1  *****    0.082419
   20   C20       -5.439425921     0.193740170     0.199260848     C.2   1  *****    0.004883
   21   N21       -4.588024585     0.299922033    -0.910128593     N.3   1  *****    0.023939
   22   C22       -3.227138270     0.251900122    -0.809936043     C.2   1  *****    0.369877
   23   C23       -5.804369239    -0.015700172     2.584468078     C.2   1  *****   -0.390801
   24   C24       -7.180998785    -0.008089561     2.399438973     C.2   1  *****    0.474205
   25   C25       -7.690846104     0.104591972     1.103554358     C.2   1  *****   -0.322208
   26   C26       -6.825188766     0.203395124     0.024649883     C.2   1  *****   -0.112483
   27   C27        7.180998785     0.008089561     2.399438973     C.2   1  *****    0.474205
   28   C28        5.804369239     0.015700172     2.584468078     C.2   1  *****   -0.390801
   29   C29        6.825188766    -0.203395124     0.024649883     C.2   1  *****   -0.112483
   30   C30        7.690846104    -0.104591972     1.103554358     C.2   1  *****   -0.322208
   31   O31       -2.490491988     0.379082569    -1.791349049       O   1  *****   -0.422535
   32   O32        2.490491988    -0.379082569    -1.791349049       O   1  *****   -0.422535
   33   C33       -5.148560940     0.478861338    -2.244994807     C.3   1  *****   -0.454769
   34   C34        5.148560940    -0.478861338    -2.244994807     C.3   1  *****   -0.454769
   35   Nd35       0.000000000     0.000000000    -1.724334656      Nd   1  *****    1.858028
   36   N36        0.000000000     0.000000000    -4.599775261       N   1  *****    0.897416
   37   N37        0.558000807     2.830623592    -1.125819375       N   1  *****    0.913284
   38   N38       -0.558000807    -2.830623592    -1.125819375       N   1  *****    0.913284
   39   O39        0.567289325    -2.278833432    -0.874118508       O   1  *****   -0.594450
   40   O40       -1.433255868    -2.068742665    -1.656343439       O   1  *****   -0.614633
   41   O41       -0.567289325     2.278833432    -0.874118508       O   1  *****   -0.594450
   42   O42        1.433255868     2.068742665    -1.656343439       O   1  *****   -0.614633
   43   O43        0.530917533    -0.943202973    -3.914284208       O   1  *****   -0.604906
   44   O44       -0.530917533     0.943202973    -3.914284208       O   1  *****   -0.604906
   45   O45       -0.780929294    -3.994964093    -0.861016414       O   1  *****   -0.447753
   46   O46        0.780929294     3.994964093    -0.861016414       O   1  *****   -0.447753
   47   O47        0.000000000     0.000000000    -5.810309174       O   1  *****   -0.419173
   48   O48       -7.931708499    -0.118554924     3.521617047     O.3   1  *****   -0.290208
   49   C49       -9.338131115    -0.137449881     3.386280747     C.3   1  *****   -0.322303
   50   O50        7.931708499     0.118554924     3.521617047     O.3   1  *****   -0.290208
   51   C51        9.338131115     0.137449881     3.386280747     C.3   1  *****   -0.322303
   52   H52        1.226000275    -0.007370970     5.146332657       H   1  *****    0.163701
   53   H53       -1.226000275     0.007370970     5.146332657       H   1  *****    0.163701
   54   H54        3.382284834    -0.011800123     3.852272827       H   1  *****    0.156100
   55   H55       -3.382284834     0.011800123     3.852272827       H   1  *****    0.156100
   56   H56       -5.440544095    -0.111692542     3.599970465       H   1  *****    0.181110
   57   H57       -8.757811977     0.113115004     0.921602510       H   1  *****    0.171183
   58   H58       -7.245895136     0.283807143    -0.967939066       H   1  *****    0.145480
   59   H59        5.440544095     0.111692542     3.599970465       H   1  *****    0.181110
   60   H60        7.245895136    -0.283807143    -0.967939066       H   1  *****    0.145480
   61   H61        8.757811977    -0.113115004     0.921602510       H   1  *****    0.171183
   62   H62       -5.752349968    -0.389021416    -2.521579427       H   1  *****    0.174056
   63   H63       -4.318203698     0.579643025    -2.938979584       H   1  *****    0.194308
   64   H64       -5.763718642     1.381164155    -2.275463126       H   1  *****    0.170312
   65   H65        5.763718642    -1.381164155    -2.275463126       H   1  *****    0.170312
   66   H66        4.318203698    -0.579643025    -2.938979584       H   1  *****    0.194308
   67   H67        5.752349968     0.389021416    -2.521579427       H   1  *****    0.174056
   68   H68       -9.734882997    -0.239364830     4.396068125       H   1  *****    0.182907
   69   H69       -9.713243316     0.793211223     2.943515053       H   1  *****    0.144669
   70   H70       -9.672091646    -0.987494781     2.779204804       H   1  *****    0.145529
   71   H71        9.734882997     0.239364830     4.396068125       H   1  *****    0.182907
   72   H72        9.713243316    -0.793211223     2.943515053       H   1  *****    0.144669
   73   H73        9.672091646     0.987494781     2.779204804       H   1  *****    0.145529


@<TRIPOS>BOND
    1      1      2    2
    2      1      6    1
    3      2      3    1
    4      4      5    1
    5      7      6    2
    6      5      6    1
    7      5      8    2
    8      7     10    1
    9      8      9    1
   10     14      4    2
   11      3      4    1
   12      3     11    2
   13     11     12    1
   14     13     14    1
   15     15     10    1
   16      9     10    2
   17      9     16    1
   18     16     17    1
   19     17     18    1
   20     22     13    1
   21     12     13    2
   22     12     19    1
   23     20     21    1
   24     21     22    1
   25     26     20    2
   26     19     20    1
   27     23     19    2
   28     23     24    1
   29     24     25    2
   30     25     26    1
   31     18     29    1
   32     15     18    2
   33     28     15    1
   34     27     28    2
   35     27     30    1
   36     29     30    2
   37     22     31    2
   38     16     32    2
   39     21     33    1
   40     17     34    1
   41     38     39    2
   42     38     40    2
   43     37     41    2
   44     37     42    2
   45     36     43    2
   46     36     44    2
   47     38     45    1
   48     37     46    1
   49     36     47    1
   50     14     35    1
   51     31     35    1
   52     39     35    1
   53     40     35    1
   54     41     35    1
   55     42     35    1
   56     43     35    1
   57     44     35    1
   58     32     35    1
   59      8     35    1
   60     48     49    1
   61     24     48    1
   62     50     51    1
   63     27     50    1
   64      1     52    1
   65      2     53    1
   66      7     54    1
   67     11     55    1
   68     23     56    1
   69     25     57    1
   70     26     58    1
   71     28     59    1
   72     29     60    1
   73     30     61    1
   74     33     62    1
   75     33     63    1
   76     33     64    1
   77     34     65    1
   78     34     66    1
   79     34     67    1
   80     49     68    1
   81     49     69    1
   82     49     70    1
   83     51     71    1
   84     51     72    1
   85     51     73    1
#
#	File Created by: Spartan '14 Export
#

@<TRIPOS>MOLECULE
*****
81 93
SMALL
USER_CHARGES


@<TRIPOS>ATOM
    1   C1         0.678794696     0.012128839     4.023859944     C.2   1  *****   -0.225072
    2   C2        -0.678794696    -0.012128839     4.023859944     C.2   1  *****   -0.225072
    3   C3        -1.426627715    -0.025943300     2.798429452     C.2   1  *****    0.125083
    4   C4        -0.720360844    -0.011018865     1.569762621     C.2   1  *****    0.214330
    5   C5         0.720360844     0.011018865     1.569762621     C.2   1  *****    0.214331
    6   C6         1.426627715     0.025943300     2.798429452     C.2   1  *****    0.125083
    7   C7         2.821045452     0.051961911     2.738226941     C.2   1  *****   -0.168368
    8   N8         1.341451573     0.031315203     0.392300284       N   1  *****   -0.466334
    9   C9         2.663454723     0.109010620     0.356523149     C.2   1  *****    0.241666
   10   C10        3.479652207     0.097395189     1.508854626     C.2   1  *****   -0.009498
   11   C11       -2.821045452    -0.051961911     2.738226941     C.2   1  *****   -0.168368
   12   C12       -3.479652207    -0.097395189     1.508854626     C.2   1  *****   -0.009498
   13   C13       -2.663454723    -0.109010620     0.356523149     C.2   1  *****    0.241666
   14   N14       -1.341451573    -0.031315203     0.392300284       N   1  *****   -0.466334
   15   C15        4.921589798     0.132203871     1.324424522     C.2   1  *****   -0.005783
   16   C16        3.220137851     0.281924687    -0.996948949     C.2   1  *****    0.393698
   17   N17        4.578147612     0.352948887    -1.096302221     N.3   1  *****   -0.027185
   18   C18        5.430372698     0.254805260     0.013451081     C.2   1  *****    0.079820
   19   C19       -4.921589798    -0.132203871     1.324424522     C.2   1  *****   -0.005783
   20   C20       -5.430372698    -0.254805260     0.013451081     C.2   1  *****    0.079820
   21   N21       -4.578147612    -0.352948887    -1.096302221     N.3   1  *****   -0.027185
   22   C22       -3.220137851    -0.281924687    -0.996948949     C.2   1  *****    0.393698
   23   C23       -5.808534367    -0.034211639     2.401225682     C.2   1  *****   -0.291450
   24   C24       -7.198124311    -0.063975385     2.236002261     C.2   1  *****    0.241437
   25   C25       -7.679975103    -0.182331871     0.915105436     C.2   1  *****   -0.273648
   26   C26       -6.818157893    -0.276770377    -0.158684617     C.2   1  *****   -0.130018
   27   C27        7.198124311     0.063975385     2.236002261     C.2   1  *****    0.241437
   28   C28        5.808534367     0.034211639     2.401225682     C.2   1  *****   -0.291450
   29   C29        6.818157893     0.276770377    -0.158684617     C.2   1  *****   -0.130018
   30   C30        7.679975103     0.182331871     0.915105436     C.2   1  *****   -0.273648
   31   O31       -2.479831657    -0.395104614    -1.979324921       O   1  *****   -0.436731
   32   O32        2.479831657     0.395104614    -1.979324921       O   1  *****   -0.436731
   33   C33       -5.137058757    -0.544078510    -2.429800695     C.3   1  *****   -0.438794
   34   C34        5.137058757     0.544078510    -2.429800695     C.3   1  *****   -0.438794
   35   Nd35       0.000000000     0.000000000    -1.903768509      Nd   1  *****    1.856380
   36   N36        0.000000000     0.000000000    -4.780540186       N   1  *****    0.896631
   37   N37        0.572171202    -2.830069491    -1.295190488       N   1  *****    0.915619
   38   N38       -0.572171202     2.830069491    -1.295190488       N   1  *****    0.915619
   39   O39       -1.446846063     2.065311776    -1.820992907       O   1  *****   -0.614489
   40   O40        0.558461996     2.285571761    -1.054842222       O   1  *****   -0.595059
   41   O41        1.446846063    -2.065311776    -1.820992907       O   1  *****   -0.614489
   42   O42       -0.558461996    -2.285571761    -1.054842222       O   1  *****   -0.595059
   43   O43        0.493366770     0.963380879    -4.095772951       O   1  *****   -0.602676
   44   O44       -0.493366770    -0.963380879    -4.095772951       O   1  *****   -0.602676
   45   O45       -0.800323850     3.992838130    -1.024337263       O   1  *****   -0.453016
   46   O46        0.800323850    -3.992838130    -1.024337263       O   1  *****   -0.453016
   47   O47        0.000000000     0.000000000    -5.991598026       O   1  *****   -0.422618
   48   N48       -8.059497093     0.018576357     3.310238802     N.3   1  *****    0.040428
   49   C49       -9.476612329     0.183314036     3.075527810     C.3   1  *****   -0.482272
   50   C50       -7.528397934     0.309254181     4.621274076     C.3   1  *****   -0.505731
   51   N51        8.059497093    -0.018576357     3.310238802     N.3   1  *****    0.040428
   52   C52        7.528397934    -0.309254181     4.621274076     C.3   1  *****   -0.505731
   53   C53        9.476612329    -0.183314036     3.075527810     C.3   1  *****   -0.482272
   54   H54        1.225433764     0.022326776     4.961605987       H   1  *****    0.164544
   55   H55       -1.225433764    -0.022326776     4.961605987       H   1  *****    0.164544
   56   H56        3.380793206     0.055269576     3.667023030       H   1  *****    0.142738
   57   H57       -3.380793206    -0.055269576     3.667023030       H   1  *****    0.142738
   58   H58       -5.399594092     0.082057357     3.394367773       H   1  *****    0.168918
   59   H59       -8.743896142    -0.194901324     0.719952200       H   1  *****    0.165607
   60   H60       -7.240260318    -0.359182062    -1.150798193       H   1  *****    0.138140
   61   H61        5.399594092    -0.082057357     3.394367773       H   1  *****    0.168918
   62   H62        7.240260318     0.359182062    -1.150798193       H   1  *****    0.138140
   63   H63        8.743896142     0.194901324     0.719952200       H   1  *****    0.165607
   64   H64       -5.748213656     0.316946350    -2.711830921       H   1  *****    0.171684
   65   H65       -4.305772029    -0.641960842    -3.123129919       H   1  *****    0.192450
   66   H66       -5.745268528    -1.451192229    -2.454469869       H   1  *****    0.167063
   67   H67        5.745268528     1.451192229    -2.454469869       H   1  *****    0.167063
   68   H68        4.305772029     0.641960842    -3.123129919       H   1  *****    0.192450
   69   H69        5.748213656    -0.316946350    -2.711830921       H   1  *****    0.171684
   70   H70       -9.996002124     0.214546176     4.033492724       H   1  *****    0.187784
   71   H71       -9.885997108    -0.660889664     2.509677464       H   1  *****    0.149249
   72   H72       -9.712922735     1.107785799     2.528072762       H   1  *****    0.159585
   73   H73       -8.344946224     0.329735684     5.343040561       H   1  *****    0.198418
   74   H74       -6.823758755    -0.466922782     4.943280288       H   1  *****    0.144069
   75   H75       -7.008926557     1.278799032     4.663827635       H   1  *****    0.158597
   76   H76        8.344946224    -0.329735684     5.343040561       H   1  *****    0.198418
   77   H77        6.823758755     0.466922782     4.943280288       H   1  *****    0.144069
   78   H78        7.008926557    -1.278799032     4.663827635       H   1  *****    0.158597
   79   H79        9.996002124    -0.214546176     4.033492724       H   1  *****    0.187784
   80   H80        9.885997108     0.660889664     2.509677464       H   1  *****    0.149249
   81   H81        9.712922735    -1.107785799     2.528072762       H   1  *****    0.159585


@<TRIPOS>BOND
    1      1      2    2
    2      1      6    1
    3      2      3    1
    4      4      5    1
    5      7      6    2
    6      5      6    1
    7      5      8    2
    8      7     10    1
    9      8      9    1
   10     14      4    2
   11      3      4    1
   12      3     11    2
   13     11     12    1
   14     13     14    1
   15     15     10    1
   16      9     10    2
   17      9     16    1
   18     16     17    1
   19     17     18    1
   20     22     13    1
   21     12     13    2
   22     12     19    1
   23     20     21    1
   24     21     22    1
   25     26     20    2
   26     19     20    1
   27     23     19    2
   28     23     24    1
   29     24     25    2
   30     25     26    1
   31     18     29    1
   32     15     18    2
   33     28     15    1
   34     27     28    2
   35     27     30    1
   36     29     30    2
   37     22     31    2
   38     16     32    2
   39     21     33    1
   40     17     34    1
   41     38     39    2
   42     38     40    2
   43     37     41    2
   44     37     42    2
   45     36     43    2
   46     36     44    2
   47     38     45    1
   48     37     46    1
   49     36     47    1
   50     14     35    1
   51     31     35    1
   52     39     35    1
   53     40     35    1
   54     41     35    1
   55     42     35    1
   56     43     35    1
   57     44     35    1
   58     32     35    1
   59      8     35    1
   60     48     49    1
   61     48     50    1
   62     24     48    1
   63     51     52    1
   64     51     53    1
   65     27     51    1
   66      1     54    1
   67      2     55    1
   68      7     56    1
   69     11     57    1
   70     23     58    1
   71     25     59    1
   72     26     60    1
   73     28     61    1
   74     29     62    1
   75     30     63    1
   76     33     64    1
   77     33     65    1
   78     33     66    1
   79     34     67    1
   80     34     68    1
   81     34     69    1
   82     49     70    1
   83     49     71    1
   84     49     72    1
   85     50     73    1
   86     50     74    1
   87     50     75    1
   88     52     76    1
   89     52     77    1
   90     52     78    1
   91     53     79    1
   92     53     80    1
   93     53     81    1
#
#	File Created by: Spartan '14 Export
#

@<TRIPOS>MOLECULE
*****
69 81
SMALL
USER_CHARGES


@<TRIPOS>ATOM
    1   C1         0.679079422    -4.071224361     0.002258779     C.2   1  *****   -0.219050
    2   C2        -0.678296499    -4.071141354    -0.003125975     C.2   1  *****   -0.218548
    3   C3        -1.424636067    -2.844927970    -0.007878804     C.2   1  *****    0.132733
    4   C4        -0.720802407    -1.613697122    -0.002246512     C.2   1  *****    0.221886
    5   C5         0.720794081    -1.613726888     0.003129948     C.2   1  *****    0.220926
    6   C6         1.424910726    -2.845044796     0.007735797     C.2   1  *****    0.133597
    7   C7         2.819888235    -2.790296685     0.016264195     C.2   1  *****   -0.175020
    8   N8         1.342816384    -0.436168795     0.017459780       N   1  *****   -0.460893
    9   C9         2.665704633    -0.407793287     0.077888819     C.2   1  *****    0.231798
   10   C10        3.475500874    -1.560409115     0.057926841     C.2   1  *****   -0.020416
   11   C11       -2.819728203    -2.790093088    -0.016734658     C.2   1  *****   -0.174593
   12   C12       -3.475491483    -1.560288205    -0.057911984     C.2   1  *****   -0.020895
   13   C13       -2.665709281    -0.407768427    -0.076830937     C.2   1  *****    0.232763
   14   N14       -1.342830578    -0.436163703    -0.015824148       N   1  *****   -0.461540
   15   C15        4.917067828    -1.376243148     0.078478334     C.2   1  *****   -0.010763
   16   C16        3.235856895     0.940759762     0.240885516     C.2   1  *****    0.417484
   17   N17        4.606712774     1.041224940     0.273293426     N.3   1  *****   -0.057327
   18   C18        5.447207787    -0.063382483     0.176227102     C.2   1  *****    0.139100
   19   C19       -4.917029870    -1.376180468    -0.078968051     C.2   1  *****   -0.010630
   20   C20       -5.447178677    -0.063251209    -0.175747921     C.2   1  *****    0.139192
   21   N21       -4.606655770     1.041418816    -0.271914458     N.3   1  *****   -0.056403
   22   C22       -3.235764982     0.940847271    -0.239658113     C.2   1  *****    0.416018
   23   C23       -5.800831682    -2.452053300     0.001007210     C.2   1  *****   -0.132537
   24   C24       -7.163894215    -2.238611113    -0.011199730     C.2   1  *****   -0.034645
   25   C25       -7.698426346    -0.958084979    -0.102043546     C.2   1  *****   -0.134189
   26   C26       -6.840294404     0.119554334    -0.183680768     C.2   1  *****   -0.148026
   27   C27        7.163943388    -2.238480859     0.008850933     C.2   1  *****   -0.034683
   28   C28        5.800888554    -2.451989695    -0.002985153     C.2   1  *****   -0.132679
   29   C29        6.840314395     0.119475695     0.183916639     C.2   1  *****   -0.147337
   30   C30        7.698456090    -0.958040430     0.100883441     C.2   1  *****   -0.133924
   31   O31       -2.511459401     1.924311456    -0.372645010       O   1  *****   -0.408894
   32   O32        2.511702321     1.924346710     0.373546467       O   1  *****   -0.409625
   33   C33       -5.165084543     2.383747843    -0.429903425     C.3   1  *****   -0.428092
   34   C34        5.165161666     2.383484995     0.431917029     C.3   1  *****   -0.427555
   35   Nd35       0.000175230     1.874472127     0.000320334      Nd   1  *****    1.848945
   36   N36       -0.002331159     4.741939362    -0.002032724       N   1  *****    0.886520
   37   N37       -0.553679708     1.284692070     2.823905730       N   1  *****    0.897455
   38   N38        0.555216709     1.283236452    -2.822620458       N   1  *****    0.897222
   39   O39        1.427613838     1.819565532    -2.058585555       O   1  *****   -0.614888
   40   O40       -0.567463896     1.020646241    -2.267949650       O   1  *****   -0.591461
   41   O41       -1.426444125     1.820124067     2.059619644       O   1  *****   -0.614953
   42   O42        0.569131920     1.022611846     2.269353275       O   1  *****   -0.591618
   43   O43       -0.609424621     4.052611758    -0.897111986       O   1  *****   -0.598648
   44   O44        0.604866455     4.054989966     0.894810058       O   1  *****   -0.598562
   45   O45        0.778670909     1.023820896    -3.985892467       O   1  *****   -0.430368
   46   O46       -0.777004294     1.025926172     3.987347279       O   1  *****   -0.430455
   47   O47       -0.002687562     5.950486789    -0.003335456       O   1  *****   -0.406198
   48   N48       -8.060470981    -3.387753113     0.076250498       N   1  *****    0.715660
   49   O49       -9.265302847    -3.165261346     0.065870271     O.2   1  *****   -0.392623
   50   O50       -7.550671459    -4.500980085     0.153655950     O.2   1  *****   -0.409176
   51   N51        8.060562427    -3.387444708    -0.080375311       N   1  *****    0.715709
   52   O52        9.265356304    -3.164647191    -0.073216586     O.2   1  *****   -0.392646
   53   O53        7.550817521    -4.500824354    -0.156005079     O.2   1  *****   -0.409202
   54   H54        1.226327392    -5.008247198     0.004057821       H   1  *****    0.172591
   55   H55       -1.225564253    -5.008185814    -0.005570461       H   1  *****    0.172466
   56   H56        3.378936121    -3.719326971     0.005066523       H   1  *****    0.169238
   57   H57       -3.378664867    -3.719210934    -0.006258151       H   1  *****    0.169161
   58   H58       -5.447497468    -3.471178090     0.078434726       H   1  *****    0.148136
   59   H59       -8.772387752    -0.826384449    -0.106273803       H   1  *****    0.162582
   60   H60       -7.255619701     1.114596283    -0.251046940       H   1  *****    0.149326
   61   H61        5.447566080    -3.471040239    -0.081405836       H   1  *****    0.148189
   62   H62        7.255626679     1.114468732     0.252079975       H   1  *****    0.149024
   63   H63        8.772407293    -0.826292680     0.104841006       H   1  *****    0.162360
   64   H64       -5.780268264     2.430346265    -1.330870908       H   1  *****    0.172024
   65   H65       -4.332281715     3.075613441    -0.522832752       H   1  *****    0.196786
   66   H66       -5.763426966     2.648119947     0.444792469       H   1  *****    0.175832
   67   H67        5.763319606     2.648349463    -0.442751059       H   1  *****    0.175750
   68   H68        4.332403354     3.075340952     0.525394322       H   1  *****    0.196649
   69   H69        5.780521406     2.429567141     1.332792885       H   1  *****    0.171940


@<TRIPOS>BOND
    1      1      2    2
    2      1      6    1
    3      2      3    1
    4      4      5    1
    5      7      6    2
    6      5      6    1
    7      5      8    2
    8      7     10    1
    9      8      9    1
   10     14      4    2
   11      3      4    1
   12      3     11    2
   13     11     12    1
   14     13     14    1
   15     15     10    1
   16      9     10    2
   17      9     16    1
   18     16     17    1
   19     17     18    1
   20     22     13    1
   21     12     13    2
   22     12     19    1
   23     20     21    1
   24     21     22    1
   25     26     20    2
   26     19     20    1
   27     23     19    2
   28     23     24    1
   29     24     25    2
   30     25     26    1
   31     18     29    1
   32     15     18    2
   33     28     15    1
   34     27     28    2
   35     27     30    1
   36     29     30    2
   37     22     31    2
   38     16     32    2
   39     21     33    1
   40     17     34    1
   41     38     39    2
   42     38     40    2
   43     37     41    2
   44     37     42    2
   45     36     43    2
   46     36     44    2
   47     38     45    1
   48     37     46    1
   49     36     47    1
   50     14     35    1
   51     31     35    1
   52     39     35    1
   53     40     35    1
   54     41     35    1
   55     42     35    1
   56     43     35    1
   57     44     35    1
   58     32     35    1
   59      8     35    1
   60     48     49    2
   61     48     50    2
   62     24     48    1
   63     51     52    2
   64     51     53    2
   65     27     51    1
   66      1     54    1
   67      2     55    1
   68      7     56    1
   69     11     57    1
   70     23     58    1
   71     25     59    1
   72     26     60    1
   73     28     61    1
   74     29     62    1
   75     30     63    1
   76     33     64    1
   77     33     65    1
   78     33     66    1
   79     34     67    1
   80     34     68    1
   81     34     69    1
#
#	File Created by: Spartan '14 Export
#

@<TRIPOS>MOLECULE
*****
59 71
SMALL
USER_CHARGES


@<TRIPOS>ATOM
    1   C1         0.679399435    -0.000729082     4.395291227     C.2   1  *****   -0.219179
    2   C2        -0.679399435     0.000729082     4.395291227     C.2   1  *****   -0.219179
    3   C3        -1.429743660     0.001868825     3.170660556     C.2   1  *****    0.129018
    4   C4        -0.720174830     0.001793457     1.944866877     C.2   1  *****    0.233266
    5   C5         0.720174830    -0.001793457     1.944866877     C.2   1  *****    0.233266
    6   C6         1.429743660    -0.001868825     3.170660556     C.2   1  *****    0.129018
    7   C7         2.825056843    -0.003197999     3.104612444     C.2   1  *****   -0.198702
    8   N8         1.333385927    -0.004463603     0.764388507       N   1  *****   -0.515314
    9   C9         2.654726588    -0.002121112     0.720272973     C.2   1  *****    0.221410
   10   C10        3.479528904    -0.002167803     1.871106783     C.2   1  *****    0.028560
   11   C11       -2.825056843     0.003197999     3.104612444     C.2   1  *****   -0.198702
   12   C12       -3.479528904     0.002167803     1.871106783     C.2   1  *****    0.028560
   13   C13       -2.654726588     0.002121112     0.720272973     C.2   1  *****    0.221411
   14   N14       -1.333385927     0.004463603     0.764388507       N   1  *****   -0.515314
   15   C15        4.924544804    -0.001101340     1.692663304     C.2   1  *****   -0.090089
   16   C16        3.217201848     0.006000150    -0.643519639     C.2   1  *****    0.650289
   17   N17        4.574878898     0.007141557    -0.705306090     N.3   1  *****   -0.627184
   18   C18        5.439939840     0.003318031     0.379409133     C.2   1  *****    0.371924
   19   C19       -4.924544804     0.001101340     1.692663304     C.2   1  *****   -0.090089
   20   C20       -5.439939840    -0.003318031     0.379409133     C.2   1  *****    0.371924
   21   N21       -4.574878898    -0.007141557    -0.705306090     N.3   1  *****   -0.627184
   22   C22       -3.217201848    -0.006000150    -0.643519639     C.2   1  *****    0.650289
   23   C23       -5.839409112     0.004205577     2.755409028     C.2   1  *****   -0.088115
   24   C24       -7.203767131     0.002957222     2.531766320     C.2   1  *****   -0.194766
   25   C25       -7.693765096    -0.001427371     1.223866724     C.2   1  *****   -0.028904
   26   C26       -6.818559580    -0.004561189     0.153489829     C.2   1  *****   -0.303826
   27   C27        7.203767131    -0.002957222     2.531766320     C.2   1  *****   -0.194766
   28   C28        5.839409112    -0.004205577     2.755409028     C.2   1  *****   -0.088115
   29   C29        6.818559580     0.004561189     0.153489829     C.2   1  *****   -0.303826
   30   C30        7.693765096     0.001427371     1.223866724     C.2   1  *****   -0.028904
   31   O31       -2.523426760    -0.014537317    -1.659747565       O   1  *****   -0.540977
   32   O32        2.523426760     0.014537317    -1.659747565       O   1  *****   -0.540977
   33   Nd33       0.000000000     0.000000000    -1.542902037      Nd   1  *****    1.920414
   34   N34        0.000000000     0.000000000    -4.400646423       N   1  *****    0.897459
   35   N35        0.028977889    -2.875304619    -0.846259506       N   1  *****    0.962827
   36   N36       -0.028977889     2.875304619    -0.846259506       N   1  *****    0.962827
   37   O37       -1.099417232     2.208242156    -1.047982581       O   1  *****   -0.624598
   38   O38        1.057689678     2.221425559    -0.986054382       O   1  *****   -0.613044
   39   O39        1.099417232    -2.208242156    -1.047982581       O   1  *****   -0.624598
   40   O40       -1.057689678    -2.221425559    -0.986054382       O   1  *****   -0.613043
   41   O41        0.158860455     1.070551908    -3.712303175       O   1  *****   -0.599580
   42   O42       -0.158860455    -1.070551908    -3.712303175       O   1  *****   -0.599580
   43   O43       -0.045753780     4.049457898    -0.532973297       O   1  *****   -0.467147
   44   O44        0.045753780    -4.049457898    -0.532973297       O   1  *****   -0.467147
   45   O45        0.000000000     0.000000000    -5.609363116       O   1  *****   -0.412783
   46   H46       -4.959893623    -0.014057404    -1.643056651       H   1  *****    0.406714
   47   H47        4.959893623     0.014057404    -1.643056651       H   1  *****    0.406714
   48   H48        1.224084259    -0.001238000     5.334068024       H   1  *****    0.167154
   49   H49       -1.224084259     0.001238000     5.334068024       H   1  *****    0.167154
   50   H50        3.390703049    -0.003813556     4.029867995       H   1  *****    0.161826
   51   H51       -3.390703049     0.003813556     4.029867995       H   1  *****    0.161826
   52   H52       -5.472942129     0.007766037     3.775646466       H   1  *****    0.129839
   53   H53       -7.889635381     0.005540535     3.371419602       H   1  *****    0.145172
   54   H54       -8.762905099    -0.002389885     1.041515000       H   1  *****    0.131788
   55   H55       -7.190821994    -0.007907879    -0.866354715       H   1  *****    0.169092
   56   H56        7.889635381    -0.005540535     3.371419602       H   1  *****    0.145172
   57   H57        5.472942129    -0.007766037     3.775646466       H   1  *****    0.129839
   58   H58        7.190821994     0.007907879    -0.866354715       H   1  *****    0.169092
   59   H59        8.762905099     0.002389885     1.041515000       H   1  *****    0.131788


@<TRIPOS>BOND
    1      1      2    2
    2      1      6    1
    3      2      3    1
    4      4      5    1
    5      7      6    2
    6      5      6    1
    7      5      8    2
    8      7     10    1
    9      8      9    1
   10     14      4    2
   11      3      4    1
   12      3     11    2
   13     11     12    1
   14     13     14    1
   15     15     10    1
   16      9     10    2
   17      9     16    1
   18     16     17    1
   19     17     18    1
   20     22     13    1
   21     12     13    2
   22     12     19    1
   23     20     21    1
   24     21     22    1
   25     26     20    2
   26     19     20    1
   27     23     19    2
   28     23     24    1
   29     24     25    2
   30     25     26    1
   31     18     29    1
   32     15     18    2
   33     28     15    1
   34     27     28    2
   35     27     30    1
   36     29     30    2
   37     22     31    2
   38     16     32    2
   39     36     37    2
   40     36     38    2
   41     35     39    2
   42     35     40    2
   43     34     41    2
   44     34     42    2
   45     36     43    1
   46     35     44    1
   47     34     45    1
   48     14     33    1
   49     31     33    1
   50     37     33    1
   51     38     33    1
   52     39     33    1
   53     40     33    1
   54     41     33    1
   55     42     33    1
   56     32     33    1
   57      8     33    1
   58     21     46    1
   59     17     47    1
   60      1     48    1
   61      2     49    1
   62      7     50    1
   63     11     51    1
   64     23     52    1
   65     24     53    1
   66     25     54    1
   67     26     55    1
   68     27     56    1
   69     28     57    1
   70     29     58    1
   71     30     59    1
#
#	File Created by: Spartan '14 Export
#

@<TRIPOS>MOLECULE
*****
65 77
SMALL
USER_CHARGES


@<TRIPOS>ATOM
    1   C1         0.678781245    -0.000703713     4.495896633     C.2   1  *****   -0.219092
    2   C2        -0.678781245     0.000703713     4.495896633     C.2   1  *****   -0.219092
    3   C3        -1.426522562    -0.000013675     3.270263488     C.2   1  *****    0.117812
    4   C4        -0.720548895     0.001867097     2.040840545     C.2   1  *****    0.225658
    5   C5         0.720548895    -0.001867097     2.040840545     C.2   1  *****    0.225658
    6   C6         1.426522562     0.000013675     3.270263488     C.2   1  *****    0.117812
    7   C7         2.821175735     0.000039917     3.212444043     C.2   1  *****   -0.166635
    8   N8         1.342233752     0.006099401     0.863434101       N   1  *****   -0.476754
    9   C9         2.665476073     0.058625178     0.831074857     C.2   1  *****    0.252678
   10   C10        3.479882733     0.034992743     1.982548288     C.2   1  *****   -0.028008
   11   C11       -2.821175735    -0.000039917     3.212444043     C.2   1  *****   -0.166635
   12   C12       -3.479882733    -0.034992743     1.982548288     C.2   1  *****   -0.028008
   13   C13       -2.665476073    -0.058625178     0.831074857     C.2   1  *****    0.252678
   14   N14       -1.342233752    -0.006099401     0.863434101       N   1  *****   -0.476754
   15   C15        4.920581363     0.044504458     1.797850731     C.2   1  *****   -0.030302
   16   C16        3.230890241     0.214332049    -0.520391309     C.2   1  *****    0.400558
   17   N17        4.595249610     0.239474847    -0.622313614     N.3   1  *****   -0.053920
   18   C18        5.443909517     0.136251755     0.485752889     C.2   1  *****    0.139502
   19   C19       -4.920581363    -0.044504458     1.797850731     C.2   1  *****   -0.030302
   20   C20       -5.443909517    -0.136251755     0.485752889     C.2   1  *****    0.139502
   21   N21       -4.595249610    -0.239474847    -0.622313614     N.3   1  *****   -0.053920
   22   C22       -3.230890241    -0.214332049    -0.520391309     C.2   1  *****    0.400558
   23   C23       -5.816278506     0.043277532     2.871999630     C.2   1  *****   -0.105795
   24   C24       -7.184358663     0.044215081     2.678333145     C.2   1  *****   -0.151024
   25   C25       -7.689502595    -0.043187015     1.382436678     C.2   1  *****   -0.094436
   26   C26       -6.832595159    -0.132258837     0.299098799     C.2   1  *****   -0.173348
   27   C27        7.184358663    -0.044215081     2.678333145     C.2   1  *****   -0.151024
   28   C28        5.816278506    -0.043277532     2.871999630     C.2   1  *****   -0.105795
   29   C29        6.832595159     0.132258837     0.299098799     C.2   1  *****   -0.173348
   30   C30        7.689502595     0.043187015     1.382436678     C.2   1  *****   -0.094436
   31   O31       -2.498884467    -0.348755107    -1.502579005       O   1  *****   -0.420577
   32   O32        2.498884467     0.348755107    -1.502579005       O   1  *****   -0.420577
   33   Nd33       0.000000000     0.000000000    -1.437294678      Nd   1  *****    1.853104
   34   N34        0.000000000     0.000000000    -4.310089262       N   1  *****    0.896962
   35   N35       -0.526194237     2.834621484    -0.834998298       N   1  *****    0.912485
   36   N36        0.526194237    -2.834621484    -0.834998298       N   1  *****    0.912485
   37   O37        1.411291888    -2.082867050    -1.364237606       O   1  *****   -0.615286
   38   O38       -0.594140521    -2.270607769    -0.588752557       O   1  *****   -0.594195
   39   O39       -1.411291888     2.082867050    -1.364237606       O   1  *****   -0.615286
   40   O40        0.594140521     2.270607769    -0.588752557       O   1  *****   -0.594195
   41   O41       -0.546820347    -0.933873885    -3.624139998       O   1  *****   -0.604060
   42   O42        0.546820347     0.933873885    -3.624139998       O   1  *****   -0.604060
   43   O43        0.736307038    -4.000211741    -0.566550655       O   1  *****   -0.445670
   44   O44       -0.736307038     4.000211741    -0.566550655       O   1  *****   -0.445670
   45   O45        0.000000000     0.000000000    -5.520218098       O   1  *****   -0.416915
   46   C46       -5.153841670    -0.396000477    -1.962344582     C.3   1  *****   -0.433335
   47   C47        5.153841670     0.396000477    -1.962344582     C.3   1  *****   -0.433335
   48   H48        1.225571790    -0.001176809     5.433453233       H   1  *****    0.166111
   49   H49       -1.225571790     0.001176809     5.433453233       H   1  *****    0.166111
   50   H50        3.380234371    -0.012250896     4.141456701       H   1  *****    0.154596
   51   H51       -3.380234371     0.012250896     4.141456701       H   1  *****    0.154596
   52   H52       -5.428139185     0.119083937     3.881158846       H   1  *****    0.126828
   53   H53       -7.854509926     0.115694905     3.527591360       H   1  *****    0.136489
   54   H54       -8.760768963    -0.039991247     1.211958775       H   1  *****    0.136173
   55   H55       -7.245229136    -0.195307961    -0.697908397       H   1  *****    0.139669
   56   H56        7.854509926    -0.115694905     3.527591360       H   1  *****    0.136489
   57   H57        5.428139185    -0.119083937     3.881158846       H   1  *****    0.126828
   58   H58        7.245229136     0.195307961    -0.697908397       H   1  *****    0.139669
   59   H59        8.760768963     0.039991247     1.211958775       H   1  *****    0.136173
   60   H60       -5.777951528    -1.291227805    -2.006647962       H   1  *****    0.169535
   61   H61       -4.321911854    -0.497298193    -2.654156904       H   1  *****    0.193116
   62   H62       -5.746538176     0.481985190    -2.229745523       H   1  *****    0.174651
   63   H63        5.746538176    -0.481985190    -2.229745523       H   1  *****    0.174651
   64   H64        4.321911854     0.497298193    -2.654156904       H   1  *****    0.193116
   65   H65        5.777951528     1.291227805    -2.006647962       H   1  *****    0.169535


@<TRIPOS>BOND
    1      1      2    2
    2      1      6    1
    3      2      3    1
    4      4      5    1
    5      7      6    2
    6      5      6    1
    7      5      8    2
    8      7     10    1
    9      8      9    1
   10     14      4    2
   11      3      4    1
   12      3     11    2
   13     11     12    1
   14     13     14    1
   15     15     10    1
   16      9     10    2
   17      9     16    1
   18     16     17    1
   19     17     18    1
   20     22     13    1
   21     12     13    2
   22     12     19    1
   23     20     21    1
   24     21     22    1
   25     26     20    2
   26     19     20    1
   27     23     19    2
   28     23     24    1
   29     24     25    2
   30     25     26    1
   31     18     29    1
   32     15     18    2
   33     28     15    1
   34     27     28    2
   35     27     30    1
   36     29     30    2
   37     22     31    2
   38     16     32    2
   39     36     37    2
   40     36     38    2
   41     35     39    2
   42     35     40    2
   43     34     41    2
   44     34     42    2
   45     36     43    1
   46     35     44    1
   47     34     45    1
   48     14     33    1
   49     31     33    1
   50     37     33    1
   51     38     33    1
   52     39     33    1
   53     40     33    1
   54     41     33    1
   55     42     33    1
   56     32     33    1
   57      8     33    1
   58     21     46    1
   59     17     47    1
   60      1     48    1
   61      2     49    1
   62      7     50    1
   63     11     51    1
   64     23     52    1
   65     24     53    1
   66     25     54    1
   67     26     55    1
   68     27     56    1
   69     28     57    1
   70     29     58    1
   71     30     59    1
   72     46     60    1
   73     46     61    1
   74     46     62    1
   75     47     63    1
   76     47     64    1
   77     47     65    1
#
#	File Created by: Spartan '14 Export
#

@<TRIPOS>MOLECULE
*****
67 79
SMALL
USER_CHARGES


@<TRIPOS>ATOM
    1   C1         0.678523977    -0.035533336     4.589867774     C.2   1  *****   -0.221843
    2   C2        -0.678523977     0.035533336     4.589867774     C.2   1  *****   -0.221843
    3   C3        -1.428333001     0.079290632     3.365207394     C.2   1  *****    0.131471
    4   C4        -0.718328667     0.048606185     2.140029538     C.2   1  *****    0.212097
    5   C5         0.718328667    -0.048606185     2.140029538     C.2   1  *****    0.212097
    6   C6         1.428333001    -0.079290632     3.365207394     C.2   1  *****    0.131471
    7   C7         2.822147587    -0.142018082     3.296992683     C.2   1  *****   -0.169659
    8   N8         1.327726538    -0.105172567     0.959332774       N   1  *****   -0.468767
    9   C9         2.646858055    -0.191483975     0.914445052     C.2   1  *****    0.220211
   10   C10        3.473045657    -0.191378993     2.061939904     C.2   1  *****   -0.006304
   11   C11       -2.822147587     0.142018082     3.296992683     C.2   1  *****   -0.169659
   12   C12       -3.473045657     0.191378993     2.061939904     C.2   1  *****   -0.006304
   13   C13       -2.646858055     0.191483975     0.914445052     C.2   1  *****    0.220211
   14   N14       -1.327726538     0.105172567     0.959332774       N   1  *****   -0.468767
   15   C15        4.913661765    -0.224244457     1.871516894     C.2   1  *****   -0.087856
   16   C16        3.190673679    -0.289995556    -0.451607834     C.2   1  *****    0.498772
   17   N17        4.549470352    -0.210259883    -0.527629732     N.3   1  *****   -0.106635
   18   C18        5.429119953    -0.218389017     0.555391284     C.2   1  *****    0.246515
   19   C19       -4.913661765     0.224244457     1.871516894     C.2   1  *****   -0.087856
   20   C20       -5.429119953     0.218389017     0.555391284     C.2   1  *****    0.246515
   21   N21       -4.549470352     0.210259883    -0.527629732     N.3   1  *****   -0.106635
   22   C22       -3.190673679     0.289995556    -0.451607834     C.2   1  *****    0.498772
   23   C23       -5.830781631     0.243081595     2.931949435     C.2   1  *****   -0.075045
   24   C24       -7.194340467     0.253836312     2.706762548     C.2   1  *****   -0.185466
   25   C25       -7.679405646     0.248528350     1.397747445     C.2   1  *****   -0.054283
   26   C26       -6.806887177     0.232817132     0.324557839     C.2   1  *****   -0.228903
   27   C27        7.194340467    -0.253836312     2.706762548     C.2   1  *****   -0.185466
   28   C28        5.830781631    -0.243081595     2.931949435     C.2   1  *****   -0.075045
   29   C29        6.806887177    -0.232817132     0.324557839     C.2   1  *****   -0.228903
   30   C30        7.679405646    -0.248528350     1.397747445     C.2   1  *****   -0.054283
   31   O31       -2.480904029     0.395070160    -1.451261232       O   1  *****   -0.472208
   32   O32        2.480904029    -0.395070160    -1.451261232       O   1  *****   -0.472208
   33   Nd33       0.000000000     0.000000000    -1.337719418      Nd   1  *****    1.868087
   34   N34        0.000000000     0.000000000    -4.204990795       N   1  *****    0.873292
   35   N35       -0.557747247    -2.831489283    -0.664971296       N   1  *****    0.935788
   36   N36        0.557747247     2.831489283    -0.664971296       N   1  *****    0.935788
   37   O37       -0.613509703     2.321018836    -0.652275993       O   1  *****   -0.607945
   38   O38        1.495951916     2.033378439    -0.996017942       O   1  *****   -0.609769
   39   O39        0.613509703    -2.321018836    -0.652275993       O   1  *****   -0.607945
   40   O40       -1.495951916    -2.033378439    -0.996017942       O   1  *****   -0.609769
   41   O41        0.275403901     1.046484507    -3.516644372       O   1  *****   -0.589306
   42   O42       -0.275403901    -1.046484507    -3.516644372       O   1  *****   -0.589306
   43   O43        0.762596421     3.992060781    -0.369754819       O   1  *****   -0.458458
   44   O44       -0.762596421    -3.992060781    -0.369754819       O   1  *****   -0.458458
   45   O45        0.000000000     0.000000000    -5.413835549       O   1  *****   -0.405781
   46   O46       -5.103210486     0.260246018    -1.785036359     O.3   1  *****   -0.124141
   47   C47       -4.944426749    -1.002689128    -2.464507935     C.3   1  *****   -0.457945
   48   O48        5.103210486    -0.260246018    -1.785036359     O.3   1  *****   -0.124141
   49   C49        4.944426749     1.002689128    -2.464507935     C.3   1  *****   -0.457945
   50   H50        1.222232746    -0.063114085     5.528805542       H   1  *****    0.166608
   51   H51       -1.222232746     0.063114085     5.528805542       H   1  *****    0.166608
   52   H52        3.390140236    -0.146067234     4.220734493       H   1  *****    0.154626
   53   H53       -3.390140236     0.146067234     4.220734493       H   1  *****    0.154626
   54   H54       -5.464128463     0.249721342     3.952085738       H   1  *****    0.125243
   55   H55       -7.881454903     0.268331373     3.545346512       H   1  *****    0.142605
   56   H56       -8.748195447     0.261847666     1.213018764       H   1  *****    0.130744
   57   H57       -7.166966248     0.247097112    -0.694503900       H   1  *****    0.170665
   58   H58        7.881454903    -0.268331373     3.545346512       H   1  *****    0.142605
   59   H59        5.464128463    -0.249721342     3.952085738       H   1  *****    0.125243
   60   H60        7.166966248    -0.247097112    -0.694503900       H   1  *****    0.170665
   61   H61        8.748195447    -0.261847666     1.213018764       H   1  *****    0.130744
   62   H62       -5.389736850    -0.831541345    -3.444077186       H   1  *****    0.217226
   63   H63       -3.888454329    -1.255563174    -2.568215269       H   1  *****    0.223266
   64   H64       -5.484430692    -1.790886578    -1.931795297       H   1  *****    0.180895
   65   H65        5.389736850     0.831541345    -3.444077186       H   1  *****    0.217226
   66   H66        3.888454329     1.255563174    -2.568215269       H   1  *****    0.223266
   67   H67        5.484430692     1.790886578    -1.931795297       H   1  *****    0.180895


@<TRIPOS>BOND
    1      1      2    2
    2      1      6    1
    3      2      3    1
    4      4      5    1
    5      7      6    2
    6      5      6    1
    7      5      8    2
    8      7     10    1
    9      8      9    1
   10     14      4    2
   11      3      4    1
   12      3     11    2
   13     11     12    1
   14     13     14    1
   15     15     10    1
   16      9     10    2
   17      9     16    1
   18     16     17    1
   19     17     18    1
   20     22     13    1
   21     12     13    2
   22     12     19    1
   23     20     21    1
   24     21     22    1
   25     26     20    2
   26     19     20    1
   27     23     19    2
   28     23     24    1
   29     24     25    2
   30     25     26    1
   31     18     29    1
   32     15     18    2
   33     28     15    1
   34     27     28    2
   35     27     30    1
   36     29     30    2
   37     22     31    2
   38     16     32    2
   39     36     37    2
   40     36     38    2
   41     35     39    2
   42     35     40    2
   43     34     41    2
   44     34     42    2
   45     36     43    1
   46     35     44    1
   47     34     45    1
   48     14     33    1
   49     31     33    1
   50     37     33    1
   51     38     33    1
   52     39     33    1
   53     40     33    1
   54     41     33    1
   55     42     33    1
   56     32     33    1
   57      8     33    1
   58     46     47    1
   59     21     46    1
   60     48     49    1
   61     17     48    1
   62      1     50    1
   63      2     51    1
   64      7     52    1
   65     11     53    1
   66     23     54    1
   67     24     55    1
   68     25     56    1
   69     26     57    1
   70     27     58    1
   71     28     59    1
   72     29     60    1
   73     30     61    1
   74     47     62    1
   75     47     63    1
   76     47     64    1
   77     49     65    1
   78     49     66    1
   79     49     67    1
#
#	File Created by: Spartan '14 Export
#

@<TRIPOS>MOLECULE
*****
75 87
SMALL
USER_CHARGES


@<TRIPOS>ATOM
    1   C1         0.678718698    -0.003315168     4.729432497     C.2   1  *****   -0.217752
    2   C2        -0.678718698     0.003315168     4.729432497     C.2   1  *****   -0.217752
    3   C3        -1.426725169     0.005821707     3.503940187     C.2   1  *****    0.112839
    4   C4        -0.720148091     0.005502607     2.274031358     C.2   1  *****    0.229960
    5   C5         0.720148091    -0.005502607     2.274031358     C.2   1  *****    0.229960
    6   C6         1.426725169    -0.005821707     3.503940187     C.2   1  *****    0.112839
    7   C7         2.821737306    -0.014163063     3.449340330     C.2   1  *****   -0.173966
    8   N8         1.342593993    -0.001497517     1.096617576       N   1  *****   -0.470946
    9   C9         2.666230432     0.045400661     1.070420926     C.2   1  *****    0.260173
   10   C10        3.483232131     0.017191672     2.220738085     C.2   1  *****   -0.021051
   11   C11       -2.821737306     0.014163063     3.449340330     C.2   1  *****   -0.173966
   12   C12       -3.483232131    -0.017191672     2.220738085     C.2   1  *****   -0.021051
   13   C13       -2.666230432    -0.045400661     1.070420926     C.2   1  *****    0.260173
   14   N14       -1.342593993     0.001497517     1.096617576       N   1  *****   -0.470946
   15   C15        4.923714334     0.014531115     2.033593641     C.2   1  *****   -0.050644
   16   C16        3.229107957     0.196830362    -0.281766150     C.2   1  *****    0.357761
   17   N17        4.590626468     0.159903757    -0.389111525     N.3   1  *****   -0.039832
   18   C18        5.448823393     0.068934709     0.721363692     C.2   1  *****    0.161588
   19   C19       -4.923714334    -0.014531115     2.033593641     C.2   1  *****   -0.050644
   20   C20       -5.448823393    -0.068934709     0.721363692     C.2   1  *****    0.161588
   21   N21       -4.590626468    -0.159903757    -0.389111525     N.3   1  *****   -0.039832
   22   C22       -3.229107957    -0.196830362    -0.281766150     C.2   1  *****    0.357761
   23   C23       -5.825108173     0.055527071     3.106374348     C.2   1  *****   -0.098079
   24   C24       -7.190979465     0.077336867     2.902507837     C.2   1  *****   -0.178581
   25   C25       -7.691175271     0.030753484     1.600377498     C.2   1  *****   -0.072447
   26   C26       -6.831964154    -0.041476471     0.519046956     C.2   1  *****   -0.169523
   27   C27        7.190979465    -0.077336867     2.902507837     C.2   1  *****   -0.178581
   28   C28        5.825108173    -0.055527071     3.106374348     C.2   1  *****   -0.098079
   29   C29        6.831964154     0.041476471     0.519046956     C.2   1  *****   -0.169523
   30   C30        7.691175271    -0.030753484     1.600377498     C.2   1  *****   -0.072447
   31   O31       -2.500256377    -0.365300858    -1.260125196       O   1  *****   -0.370254
   32   O32        2.500256377     0.365300858    -1.260125196       O   1  *****   -0.370254
   33   Nd33       0.000000000     0.000000000    -1.237339298      Nd   1  *****    1.823925
   34   N34        0.000000000     0.000000000    -4.116923242       N   1  *****    0.912014
   35   N35        0.576634427    -2.834463979    -0.756552995       N   1  *****    0.882346
   36   N36       -0.576634427     2.834463979    -0.756552995       N   1  *****    0.882346
   37   O37       -1.383759492     2.078368739    -1.395550352       O   1  *****   -0.605949
   38   O38        0.489965041     2.265672679    -0.337352714       O   1  *****   -0.594450
   39   O39        1.383759492    -2.078368739    -1.395550352       O   1  *****   -0.605949
   40   O40       -0.489965041    -2.265672679    -0.337352714       O   1  *****   -0.594450
   41   O41        0.776103364     0.752969846    -3.430192094       O   1  *****   -0.611065
   42   O42       -0.776103364    -0.752969846    -3.430192094       O   1  *****   -0.611065
   43   O43       -0.810437772     4.006080230    -0.545247330       O   1  *****   -0.429373
   44   O44        0.810437772    -4.006080230    -0.545247330       O   1  *****   -0.429373
   45   O45        0.000000000     0.000000000    -5.327243619       O   1  *****   -0.422147
   46   N46       -5.191852827    -0.227914380    -1.660140742     N.3   1  *****    0.029764
   47   C47       -4.842025186     0.915326692    -2.503282252     C.3   1  *****   -0.598908
   48   C48       -5.007216501    -1.528673653    -2.302454935     C.3   1  *****   -0.589641
   49   N49        5.191852827     0.227914380    -1.660140742     N.3   1  *****    0.029764
   50   C50        5.007216501     1.528673653    -2.302454935     C.3   1  *****   -0.589642
   51   C51        4.842025186    -0.915326692    -2.503282252     C.3   1  *****   -0.598908
   52   H52        1.225628294    -0.005890190     5.666930244       H   1  *****    0.165892
   53   H53       -1.225628294     0.005890190     5.666930244       H   1  *****    0.165892
   54   H54        3.379103454    -0.033046012     4.379338051       H   1  *****    0.157336
   55   H55       -3.379103454     0.033046012     4.379338051       H   1  *****    0.157336
   56   H56       -5.442439890     0.099443883     4.119697479       H   1  *****    0.126331
   57   H57       -7.865616035     0.133662531     3.749580534       H   1  *****    0.140535
   58   H58       -8.762008915     0.051760830     1.427278149       H   1  *****    0.132381
   59   H59       -7.196350715    -0.077935455    -0.497840782       H   1  *****    0.118099
   60   H60        7.865616035    -0.133662531     3.749580534       H   1  *****    0.140535
   61   H61        5.442439890    -0.099443883     4.119697479       H   1  *****    0.126331
   62   H62        7.196350715     0.077935455    -0.497840782       H   1  *****    0.118099
   63   H63        8.762008915    -0.051760830     1.427278149       H   1  *****    0.132381
   64   H64       -5.505002322     0.886761971    -3.371662026       H   1  *****    0.212940
   65   H65       -3.801029705     0.906538238    -2.841683101       H   1  *****    0.230031
   66   H66       -5.035900720     1.837573147    -1.951756048       H   1  *****    0.195166
   67   H67       -5.676555276    -1.559976107    -3.166056620       H   1  *****    0.212307
   68   H68       -3.979416422    -1.705023036    -2.636191198       H   1  *****    0.219833
   69   H69       -5.309832148    -2.315761214    -1.607848417       H   1  *****    0.190282
   70   H70        5.676555276     1.559976107    -3.166056620       H   1  *****    0.212307
   71   H71        3.979416422     1.705023036    -2.636191198       H   1  *****    0.219833
   72   H72        5.309832148     2.315761214    -1.607848417       H   1  *****    0.190282
   73   H73        5.505002322    -0.886761971    -3.371662026       H   1  *****    0.212940
   74   H74        3.801029705    -0.906538238    -2.841683101       H   1  *****    0.230031
   75   H75        5.035900720    -1.837573147    -1.951756048       H   1  *****    0.195166


@<TRIPOS>BOND
    1      1      2    2
    2      1      6    1
    3      2      3    1
    4      4      5    1
    5      7      6    2
    6      5      6    1
    7      5      8    2
    8      7     10    1
    9      8      9    1
   10     14      4    2
   11      3      4    1
   12      3     11    2
   13     11     12    1
   14     13     14    1
   15     15     10    1
   16      9     10    2
   17      9     16    1
   18     16     17    1
   19     17     18    1
   20     22     13    1
   21     12     13    2
   22     12     19    1
   23     20     21    1
   24     21     22    1
   25     26     20    2
   26     19     20    1
   27     23     19    2
   28     23     24    1
   29     24     25    2
   30     25     26    1
   31     18     29    1
   32     15     18    2
   33     28     15    1
   34     27     28    2
   35     27     30    1
   36     29     30    2
   37     22     31    2
   38     16     32    2
   39     36     37    2
   40     36     38    2
   41     35     39    2
   42     35     40    2
   43     34     41    2
   44     34     42    2
   45     36     43    1
   46     35     44    1
   47     34     45    1
   48     14     33    1
   49     31     33    1
   50     37     33    1
   51     38     33    1
   52     39     33    1
   53     40     33    1
   54     41     33    1
   55     42     33    1
   56     32     33    1
   57      8     33    1
   58     46     47    1
   59     46     48    1
   60     21     46    1
   61     49     50    1
   62     49     51    1
   63     17     49    1
   64      1     52    1
   65      2     53    1
   66      7     54    1
   67     11     55    1
   68     23     56    1
   69     24     57    1
   70     25     58    1
   71     26     59    1
   72     27     60    1
   73     28     61    1
   74     29     62    1
   75     30     63    1
   76     47     64    1
   77     47     65    1
   78     47     66    1
   79     48     67    1
   80     48     68    1
   81     48     69    1
   82     50     70    1
   83     50     71    1
   84     50     72    1
   85     51     73    1
   86     51     74    1
   87     51     75    1
#
#	File Created by: Spartan '14 Export
#

@<TRIPOS>MOLECULE
*****
63 75
SMALL
USER_CHARGES


@<TRIPOS>ATOM
    1   C1         0.678784363    -0.011129596     4.636228335     C.2   1  *****   -0.220064
    2   C2        -0.678784363     0.011129596     4.636228335     C.2   1  *****   -0.220064
    3   C3        -1.426419630     0.022229654     3.410723368     C.2   1  *****    0.136555
    4   C4        -0.720516144     0.012949155     2.181432097     C.2   1  *****    0.220435
    5   C5         0.720516144    -0.012949155     2.181432097     C.2   1  *****    0.220435
    6   C6         1.426419630    -0.022229654     3.410723368     C.2   1  *****    0.136555
    7   C7         2.821251111    -0.042367817     3.353834137     C.2   1  *****   -0.178251
    8   N8         1.341860254    -0.017322000     1.004474772       N   1  *****   -0.483780
    9   C9         2.664474236     0.002017271     0.973666300     C.2   1  *****    0.256118
   10   C10        3.483424435    -0.024983600     2.125530665     C.2   1  *****   -0.021332
   11   C11       -2.821251111     0.042367817     3.353834137     C.2   1  *****   -0.178250
   12   C12       -3.483424435     0.024983600     2.125530665     C.2   1  *****   -0.021332
   13   C13       -2.664474236    -0.002017271     0.973666300     C.2   1  *****    0.256118
   14   N14       -1.341860254     0.017322000     1.004474772       N   1  *****   -0.483780
   15   C15        4.930071685    -0.034541974     1.960271568     C.2   1  *****   -0.008473
   16   C16        3.228310260     0.129631291    -0.382350619     C.2   1  *****    0.504882
   17   N17        4.597389220     0.108868441    -0.425119284     N.3   1  *****   -0.350446
   18   C18        5.475692435     0.036283026     0.659772416     C.2   1  *****    0.217920
   19   C19       -4.930071685     0.034541974     1.960271568     C.2   1  *****   -0.008473
   20   C20       -5.475692435    -0.036283026     0.659772416     C.2   1  *****    0.217920
   21   N21       -4.597389220    -0.108868441    -0.425119284     N.3   1  *****   -0.350446
   22   C22       -3.228310260    -0.129631291    -0.382350619     C.2   1  *****    0.504882
   23   C23       -5.821710209     0.125474702     3.038214221     C.2   1  *****   -0.119568
   24   C24       -7.189682051     0.147938016     2.844547776     C.2   1  *****   -0.159531
   25   C25       -7.705101675     0.082414168     1.550344262     C.2   1  *****   -0.043873
   26   C26       -6.857555881    -0.007657532     0.460263676     C.2   1  *****   -0.236314
   27   C27        7.189682051    -0.147938016     2.844547776     C.2   1  *****   -0.159531
   28   C28        5.821710209    -0.125474702     3.038214221     C.2   1  *****   -0.119568
   29   C29        6.857555881     0.007657532     0.460263676     C.2   1  *****   -0.236314
   30   C30        7.705101675    -0.082414168     1.550344262     C.2   1  *****   -0.043873
   31   O31       -2.548640027    -0.288646265    -1.388073700       O   1  *****   -0.437693
   32   O32        2.548640027     0.288646265    -1.388073700       O   1  *****   -0.437693
   33   Nd33       0.000000000     0.000000000    -1.314738839      Nd   1  *****    1.886942
   34   N34        0.000000000     0.000000000    -4.167708172       N   1  *****    0.889173
   35   N35       -0.445020128     2.821721739    -0.620461241       N   1  *****    0.929563
   36   N36        0.445020128    -2.821721739    -0.620461241       N   1  *****    0.929563
   37   O37        1.374727783    -2.087867349    -1.097867627       O   1  *****   -0.624085
   38   O38       -0.687256563    -2.244769490    -0.479776830       O   1  *****   -0.602327
   39   O39       -1.374727783     2.087867349    -1.097867627       O   1  *****   -0.624085
   40   O40        0.687256563     2.244769490    -0.479776830       O   1  *****   -0.602327
   41   O41       -0.455516372    -0.982075792    -3.477907683       O   1  *****   -0.599747
   42   O42        0.455516372     0.982075792    -3.477907683       O   1  *****   -0.599747
   43   O43        0.625723421    -3.978850550    -0.303943377       O   1  *****   -0.442619
   44   O44       -0.625723421     3.978850550    -0.303943377       O   1  *****   -0.442619
   45   O45        0.000000000     0.000000000    -5.374527531       O   1  *****   -0.396485
   46   N46       -5.172038529    -0.290419696    -1.788339100       N   1  *****    0.802460
   47   O47       -5.670191522    -1.370898421    -1.981474615     O.2   1  *****   -0.336384
   48   O48       -5.079027167     0.666186541    -2.505884905     O.2   1  *****   -0.309821
   49   N49        5.172038529     0.290419696    -1.788339100       N   1  *****    0.802460
   50   O50        5.079027167    -0.666186541    -2.505884905     O.2   1  *****   -0.309821
   51   O51        5.670191522     1.370898421    -1.981474615     O.2   1  *****   -0.336384
   52   H52        1.224980848    -0.020078520     5.573939971       H   1  *****    0.170528
   53   H53       -1.224980848     0.020078520     5.573939971       H   1  *****    0.170528
   54   H54        3.379093280    -0.058086679     4.283303962       H   1  *****    0.159292
   55   H55       -3.379093280     0.058086679     4.283303962       H   1  *****    0.159292
   56   H56       -5.431586843     0.187299222     4.047307512       H   1  *****    0.137122
   57   H57       -7.856274146     0.220335245     3.696295316       H   1  *****    0.143517
   58   H58       -8.776781907     0.103979201     1.386704909       H   1  *****    0.135846
   59   H59       -7.269206514    -0.061189360    -0.539153161       H   1  *****    0.170254
   60   H60        7.856274146    -0.220335245     3.696295316       H   1  *****    0.143517
   61   H61        5.431586843    -0.187299222     4.047307512       H   1  *****    0.137122
   62   H62        7.269206514     0.061189360    -0.539153161       H   1  *****    0.170254
   63   H63        8.776781907    -0.103979201     1.386704909       H   1  *****    0.135846


@<TRIPOS>BOND
    1      1      2    2
    2      1      6    1
    3      2      3    1
    4      4      5    1
    5      7      6    2
    6      5      6    1
    7      5      8    2
    8      7     10    1
    9      8      9    1
   10     14      4    2
   11      3      4    1
   12      3     11    2
   13     11     12    1
   14     13     14    1
   15     15     10    1
   16      9     10    2
   17      9     16    1
   18     16     17    1
   19     17     18    1
   20     22     13    1
   21     12     13    2
   22     12     19    1
   23     20     21    1
   24     21     22    1
   25     26     20    2
   26     19     20    1
   27     23     19    2
   28     23     24    1
   29     24     25    2
   30     25     26    1
   31     18     29    1
   32     15     18    2
   33     28     15    1
   34     27     28    2
   35     27     30    1
   36     29     30    2
   37     22     31    2
   38     16     32    2
   39     36     37    2
   40     36     38    2
   41     35     39    2
   42     35     40    2
   43     34     41    2
   44     34     42    2
   45     36     43    1
   46     35     44    1
   47     34     45    1
   48     14     33    1
   49     31     33    1
   50     37     33    1
   51     38     33    1
   52     39     33    1
   53     40     33    1
   54     41     33    1
   55     42     33    1
   56     32     33    1
   57      8     33    1
   58     46     47    2
   59     46     48    2
   60     21     46    1
   61     49     50    2
   62     49     51    2
   63     17     49    1
   64      1     52    1
   65      2     53    1
   66      7     54    1
   67     11     55    1
   68     23     56    1
   69     24     57    1
   70     25     58    1
   71     26     59    1
   72     27     60    1
   73     28     61    1
   74     29     62    1
   75     30     63    1
#
#	File Created by: Spartan '14 Export
#

@<TRIPOS>MOLECULE
*****
54 63
SMALL
USER_CHARGES


@<TRIPOS>ATOM
    1   C1         3.516591063     2.065276178     0.047539175     C.2   1  *****    0.052169
    2   C2         2.850826262     3.316969236     0.048424715     C.2   1  *****    0.080544
    3   N3         1.453997884     3.397138923    -0.036300070     N.3   1  *****    0.046140
    4   C4         0.652411676     2.293058456    -0.107732066     C.2   1  *****    0.297061
    5   C5         1.329323250     0.988831482    -0.099633601     C.2   1  *****    0.301219
    6   C6         2.727370708     0.850311308    -0.044004492     C.2   1  *****   -0.130891
    7   C7         3.231647063    -0.453870902    -0.080614224     C.2   1  *****   -0.007493
    8   N8         0.507646113    -0.044381606    -0.187772021       N   1  *****   -0.500794
    9   C9         0.997473409    -1.271500475    -0.250088858     C.2   1  *****    0.324885
   10   C10        2.373359165    -1.552066731    -0.192732248     C.2   1  *****   -0.145180
   11   C11        2.772632733    -2.946088163    -0.250800684     C.2   1  *****    0.050235
   12   C12       -0.025012314    -2.310374226    -0.424644991     C.2   1  *****    0.317346
   13   N13        0.414420709    -3.601049197    -0.469863150     N.3   1  *****    0.022400
   14   C14        1.772129303    -3.941445503    -0.383331293     C.2   1  *****    0.082559
   15   C15        4.475935595    -4.678347260    -0.226160018     C.2   1  *****   -0.118610
   16   C16        4.113550199    -3.346536409    -0.175819798     C.2   1  *****   -0.148174
   17   C17        2.150739499    -5.288918706    -0.433741876     C.2   1  *****   -0.154848
   18   C18        3.484758145    -5.649749543    -0.355355158     C.2   1  *****   -0.103534
   19   C19        5.651027984     3.214471067     0.218841591     C.2   1  *****   -0.109507
   20   C20        4.987375022     4.440201074     0.217151697     C.2   1  *****   -0.109820
   21   C21        3.606866050     4.493031152     0.133220548     C.2   1  *****   -0.152921
   22   C22        4.915197596     2.048622873     0.134967179     C.2   1  *****   -0.155670
   23   O23       -0.577633451     2.367687304    -0.196344671       O   1  *****   -0.446659
   24   O24       -1.219050971    -2.007450052    -0.538435471       O   1  *****   -0.426386
   25   C25        0.791222702     4.698626249    -0.054711344     C.3   1  *****   -0.475392
   26   C26       -0.599716720    -4.643149668    -0.612978936     C.3   1  *****   -0.471433
   27   Nd27      -2.047285985     0.284564220     0.060146418      Nd   1  *****    1.893910
   28   N28       -2.433121496     1.416984026    -2.545044364       N   1  *****    0.888338
   29   N29       -0.998283117    -0.052721248     2.756530542       N   1  *****    0.857150
   30   N30       -4.746311116    -0.300019025     0.732836767       N   1  *****    0.887139
   31   O31       -4.116566280     0.690794316     1.249366730       O   1  *****   -0.584152
   32   O32       -4.058747235    -1.025662767    -0.076950125       O   1  *****   -0.616731
   33   O33       -1.408732190    -1.047341620     2.067299936       O   1  *****   -0.603759
   34   O34       -1.072035218     1.086217451     2.171982944       O   1  *****   -0.576045
   35   O35       -1.583821971     0.478477165    -2.323479244       O   1  *****   -0.627759
   36   O36       -3.144994624     1.760994172    -1.540032744       O   1  *****   -0.593910
   37   O37       -2.542130359     1.939780813    -3.630141705       O   1  *****   -0.404113
   38   O38       -0.546971435    -0.175772959     3.873951598       O   1  *****   -0.412357
   39   O39       -5.900374202    -0.540000672     0.990097410       O   1  *****   -0.392083
   40   H40        6.732146280     3.173033542     0.286791853       H   1  *****    0.133288
   41   H41        5.520321362    -4.962303905    -0.164132048       H   1  *****    0.135997
   42   H42        4.300757496    -0.614012567    -0.031237441       H   1  *****    0.141729
   43   H43        4.886937749    -2.594186473    -0.072556129       H   1  *****    0.129044
   44   H44        1.400969464    -6.060924560    -0.534044210       H   1  *****    0.141268
   45   H45        3.752277244    -6.700200739    -0.395112143       H   1  *****    0.139204
   46   H46        5.549368489     5.365548074     0.283583775       H   1  *****    0.139639
   47   H47        3.115726192     5.455754519     0.136168064       H   1  *****    0.140963
   48   H48        5.435027808     1.097536216     0.140005927       H   1  *****    0.129326
   49   H49        1.136337843     5.284817206    -0.909107033       H   1  *****    0.175732
   50   H50       -0.276803011     4.519633773    -0.143745175       H   1  *****    0.209626
   51   H51        0.993839384     5.239827526     0.872352298       H   1  *****    0.180647
   52   H52       -0.568132672    -5.317177539     0.245790222       H   1  *****    0.183808
   53   H53       -0.434861449    -5.207527287    -1.533548670       H   1  *****    0.174566
   54   H54       -1.568972785    -4.153360727    -0.654229502       H   1  *****    0.212292


@<TRIPOS>BOND
    1      1      6    1
    2      2      3    1
    3      3      4    1
    4      4      5    1
    5      7      6    1
    6      5      6    2
    7      5      8    1
    8      7     10    2
    9      8      9    2
   10     11     10    1
   11     10      9    1
   12      9     12    1
   13     12     13    1
   14     13     14    1
   15     14     17    2
   16     11     14    1
   17     16     11    2
   18     15     16    1
   19     15     18    2
   20     17     18    1
   21     21      2    1
   22      1      2    2
   23      1     22    1
   24     19     20    1
   25     19     22    2
   26     20     21    2
   27      4     23    2
   28     12     24    2
   29      3     25    1
   30     13     26    1
   31     30     31    2
   32     30     32    2
   33     29     33    2
   34     29     34    2
   35     28     35    2
   36     28     36    2
   37     28     37    1
   38     29     38    1
   39     30     39    1
   40      8     27    1
   41     23     27    1
   42     24     27    1
   43     31     27    1
   44     32     27    1
   45     33     27    1
   46     34     27    1
   47     35     27    1
   48     36     27    1
   49     19     40    1
   50     15     41    1
   51      7     42    1
   52     16     43    1
   53     17     44    1
   54     18     45    1
   55     20     46    1
   56     21     47    1
   57     22     48    1
   58     25     49    1
   59     25     50    1
   60     25     51    1
   61     26     52    1
   62     26     53    1
   63     26     54    1
#
#	File Created by: Spartan '14 Export
#

@<TRIPOS>MOLECULE
*****
60 69
SMALL
USER_CHARGES


@<TRIPOS>ATOM
    1   C1         3.049558315     2.327041773     0.008076628     C.2   1  *****    0.043202
    2   C2         2.298566888     3.525898244     0.010409955     C.2   1  *****    0.007971
    3   N3         0.899072161     3.511466707    -0.067756107     N.3   1  *****    0.116797
    4   C4         0.175746137     2.355185320    -0.137998845     C.2   1  *****    0.282315
    5   C5         0.941666795     1.101487371    -0.127887828     C.2   1  *****    0.248951
    6   C6         2.346455890     1.060406884    -0.076872041     C.2   1  *****   -0.052599
    7   C7         2.939720289    -0.205811675    -0.108441457     C.2   1  *****   -0.036873
    8   N8         0.193691904     0.012986199    -0.205443613       N   1  *****   -0.460770
    9   C9         0.767318893    -1.177903370    -0.259431507     C.2   1  *****    0.271546
   10   C10        2.159997639    -1.362307863    -0.207278600     C.2   1  *****   -0.079408
   11   C11        2.654123026    -2.726163548    -0.252286521     C.2   1  *****    0.051139
   12   C12       -0.182779832    -2.285686350    -0.413722478     C.2   1  *****    0.310444
   13   N13        0.343827472    -3.542649418    -0.443044315     N.3   1  *****    0.077699
   14   C14        1.723018726    -3.786050779    -0.363086193     C.2   1  *****    0.018769
   15   C15        4.497595607    -4.333132116    -0.213296025     C.2   1  *****    0.458947
   16   C16        4.020182077    -3.033866960    -0.182354820     C.2   1  *****   -0.332733
   17   C17        2.200439524    -5.102109905    -0.397037072     C.2   1  *****   -0.102946
   18   C18        3.555415231    -5.363662530    -0.323457257     C.2   1  *****   -0.319410
   19   C19        5.124037936     3.611948077     0.173924336     C.2   1  *****    0.454212
   20   C20        4.357677692     4.784169037     0.171913932     C.2   1  *****   -0.319941
   21   C21        2.978683905     4.747969048     0.091466614     C.2   1  *****   -0.105094
   22   C22        4.446710497     2.407077510     0.091207470     C.2   1  *****   -0.332955
   23   O23       -1.057297329     2.343925707    -0.224675449       O   1  *****   -0.453056
   24   O24       -1.396164116    -2.066372203    -0.521996145       O   1  *****   -0.432747
   25   C25        0.150237395     4.764762091    -0.076114057     C.3   1  *****   -0.500695
   26   C26       -0.596058833    -4.655458890    -0.552325793     C.3   1  *****   -0.496946
   27   Nd27      -2.375737998     0.166608283     0.061444163      Nd   1  *****    1.890847
   28   N28       -2.867566575     1.238401004    -2.551275789       N   1  *****    0.891027
   29   N29       -1.285878982    -0.078297765     2.752603876       N   1  *****    0.857839
   30   N30       -5.025548768    -0.574801835     0.775681516       N   1  *****    0.883442
   31   O31       -4.446352364     0.452487220     1.279779435       O   1  *****   -0.582623
   32   O32       -4.310759892    -1.261195005    -0.043983084       O   1  *****   -0.614634
   33   O33       -1.635144646    -1.104119366     2.075587942       O   1  *****   -0.603702
   34   O34       -1.440547854     1.048199354     2.160127361       O   1  *****   -0.573727
   35   O35       -1.949256740     0.367946926    -2.328209765       O   1  *****   -0.626413
   36   O36       -3.590187944     1.544350126    -1.541885755       O   1  *****   -0.593940
   37   O37       -3.028025307     1.735749792    -3.642120661       O   1  *****   -0.406415
   38   O38       -0.816559021    -0.161393702     3.866603066       O   1  *****   -0.414301
   39   O39       -6.159130540    -0.881591731     1.053207772       O   1  *****   -0.391912
   40   C40        6.622446426     3.668245703     0.262045224     C.3   1  *****   -0.801355
   41   C41        5.965983620    -4.635722031    -0.124698872     C.3   1  *****   -0.817438
   42   H42        4.017467034    -0.291307494    -0.062723480       H   1  *****    0.130205
   43   H43        4.736968476    -2.224317336    -0.096643944       H   1  *****    0.166892
   44   H44        1.510109043    -5.929833186    -0.480073251       H   1  *****    0.143452
   45   H45        3.892060639    -6.395756940    -0.351972792       H   1  *****    0.185692
   46   H46        4.854001217     5.747798227     0.236958141       H   1  *****    0.185812
   47   H47        2.427349186     5.677977139     0.094436182       H   1  *****    0.145495
   48   H48        5.027060993     1.490544578     0.095090188       H   1  *****    0.166151
   49   H49        0.328968591     5.317903956     0.848938495       H   1  *****    0.180609
   50   H50       -0.904591563     4.514697819    -0.151184963       H   1  *****    0.213628
   51   H51        0.443227579     5.374559819    -0.933797277       H   1  *****    0.177422
   52   H52       -1.597870382    -4.235318553    -0.584650336       H   1  *****    0.215994
   53   H53       -0.408520549    -5.223772122    -1.466275824       H   1  *****    0.176718
   54   H54       -0.501474273    -5.309357920     0.317053575       H   1  *****    0.185578
   55   H55        7.058687908     2.666922702     0.290490571       H   1  *****    0.209681
   56   H56        7.052840298     4.195258467    -0.596394857       H   1  *****    0.219420
   57   H57        6.948946492     4.200257075     1.161726501       H   1  *****    0.222063
   58   H58        6.298149114    -5.250797205    -0.967307032       H   1  *****    0.222842
   59   H59        6.203205475    -5.189332439     0.790359220       H   1  *****    0.225556
   60   H60        6.564551036    -3.721418302    -0.122609108       H   1  *****    0.214276


@<TRIPOS>BOND
    1      1      6    1
    2      2      3    1
    3      3      4    1
    4      4      5    1
    5      7      6    1
    6      5      6    2
    7      5      8    1
    8      7     10    2
    9      8      9    2
   10     11     10    1
   11     10      9    1
   12      9     12    1
   13     12     13    1
   14     13     14    1
   15     14     17    2
   16     11     14    1
   17     16     11    2
   18     15     16    1
   19     15     18    2
   20     17     18    1
   21     21      2    1
   22      1      2    2
   23      1     22    1
   24     19     20    1
   25     19     22    2
   26     20     21    2
   27      4     23    2
   28     12     24    2
   29      3     25    1
   30     13     26    1
   31     30     31    2
   32     30     32    2
   33     29     33    2
   34     29     34    2
   35     28     35    2
   36     28     36    2
   37     28     37    1
   38     29     38    1
   39     30     39    1
   40      8     27    1
   41     23     27    1
   42     24     27    1
   43     31     27    1
   44     32     27    1
   45     33     27    1
   46     34     27    1
   47     35     27    1
   48     36     27    1
   49     19     40    1
   50     15     41    1
   51      7     42    1
   52     16     43    1
   53     17     44    1
   54     18     45    1
   55     20     46    1
   56     21     47    1
   57     22     48    1
   58     25     49    1
   59     25     50    1
   60     25     51    1
   61     26     52    1
   62     26     53    1
   63     26     54    1
   64     40     55    1
   65     40     56    1
   66     40     57    1
   67     41     58    1
   68     41     59    1
   69     41     60    1
#
#	File Created by: Spartan '14 Export
#

@<TRIPOS>MOLECULE
*****
62 71
SMALL
USER_CHARGES


@<TRIPOS>ATOM
    1   C1         2.671780730     2.433639509    -0.015378183     C.2   1  *****    0.051819
    2   C2         1.882176877     3.604746657    -0.010536191     C.2   1  *****   -0.043266
    3   N3         0.482675195     3.547349641    -0.088024208     N.3   1  *****    0.129050
    4   C4        -0.204908686     2.371252328    -0.159695587     C.2   1  *****    0.279222
    5   C5         0.600697312     1.143202888    -0.147671516     C.2   1  *****    0.255315
    6   C6         2.006675365     1.146198113    -0.098998335     C.2   1  *****   -0.047013
    7   C7         2.637334658    -0.101504348    -0.128775454     C.2   1  *****   -0.059999
    8   N8        -0.111958458     0.030678460    -0.217294241       N   1  *****   -0.455395
    9   C9         0.497044492    -1.142812276    -0.266227817     C.2   1  *****    0.267966
   10   C10        1.895366545    -1.282889791    -0.220062310     C.2   1  *****   -0.063451
   11   C11        2.434018780    -2.630352178    -0.260846565     C.2   1  *****    0.051204
   12   C12       -0.419550319    -2.280194800    -0.403382272     C.2   1  *****    0.314040
   13   N13        0.147259174    -3.518298432    -0.423611275     N.3   1  *****    0.081753
   14   C14        1.535295498    -3.716619982    -0.354053690     C.2   1  *****   -0.022877
   15   C15        4.309939003    -4.174466026    -0.229520307     C.2   1  *****    0.476536
   16   C16        3.814631619    -2.881197826    -0.202062736     C.2   1  *****   -0.348527
   17   C17        2.054331478    -5.020067698    -0.379772526     C.2   1  *****   -0.038942
   18   C18        3.411630922    -5.246280972    -0.318198788     C.2   1  *****   -0.370674
   19   C19        4.686377034     3.782239417     0.146309599     C.2   1  *****    0.495494
   20   C20        3.895681198     4.939134548     0.149496339     C.2   1  *****   -0.380024
   21   C21        2.523619441     4.850549014     0.072017768     C.2   1  *****   -0.036084
   22   C22        4.069730323     2.544380229     0.064202791     C.2   1  *****   -0.361293
   23   O23       -1.437704371     2.320661709    -0.247800124       O   1  *****   -0.462326
   24   O24       -1.640812529    -2.099346585    -0.503673093       O   1  *****   -0.441873
   25   C25       -0.303436489     4.777250553    -0.091739823     C.3   1  *****   -0.490282
   26   C26       -0.756473724    -4.662073627    -0.512189872     C.3   1  *****   -0.490564
   27   Nd27      -2.682796253     0.106443151     0.067996343      Nd   1  *****    1.890356
   28   N28       -3.229766135     1.132059887    -2.552023049       N   1  *****    0.892892
   29   N29       -1.554900015    -0.079736006     2.749919084       N   1  *****    0.853268
   30   N30       -5.304940060    -0.698107483     0.814138422       N   1  *****    0.887529
   31   O31       -4.746384317     0.346842601     1.305345372       O   1  *****   -0.582781
   32   O32       -4.581378465    -1.372779887    -0.007198120       O   1  *****   -0.614406
   33   O33       -1.880754064    -1.122169168     2.086803261       O   1  *****   -0.602182
   34   O34       -1.753980005     1.036081114     2.150719610       O   1  *****   -0.572934
   35   O35       -2.278984002     0.297852492    -2.326219856       O   1  *****   -0.626779
   36   O36       -3.956629965     1.422162100    -1.541075098       O   1  *****   -0.593155
   37   O37       -3.415054265     1.611700381    -3.646893693       O   1  *****   -0.408015
   38   O38       -1.066425615    -0.138069477     3.857485728       O   1  *****   -0.413769
   39   O39       -6.428095643    -1.030271786     1.104680333       O   1  *****   -0.394069
   40   O40        6.021314606     3.982851795     0.225359684     O.3   1  *****   -0.277046
   41   C41        6.869970119     2.854488754     0.228496345     C.3   1  *****   -0.331336
   42   O42        5.619784588    -4.506710697    -0.177164152     O.3   1  *****   -0.269127
   43   C43        6.571866122    -3.467524704    -0.088080820     C.3   1  *****   -0.328477
   44   H44        3.717520878    -0.153319577    -0.085360375       H   1  *****    0.138195
   45   H45        4.496342886    -2.045305860    -0.131747955       H   1  *****    0.158807
   46   H46        1.389771115    -5.870026769    -0.446782946       H   1  *****    0.139039
   47   H47        3.807426137    -6.255084901    -0.337359898       H   1  *****    0.193356
   48   H48        4.387127595     5.902931041     0.214904662       H   1  *****    0.196381
   49   H49        1.942860419     5.762414024     0.077297440       H   1  *****    0.138950
   50   H50        4.669442261     1.644525169     0.064882014       H   1  *****    0.161706
   51   H51       -0.031852165     5.398107487    -0.948690329       H   1  *****    0.172779
   52   H52       -1.350267424     4.494978347    -0.164743437       H   1  *****    0.212961
   53   H53       -0.139376700     5.333093244     0.834424398       H   1  *****    0.176419
   54   H54       -0.631594715    -5.304539584     0.361989027       H   1  *****    0.181754
   55   H55       -0.561080782    -5.232516837    -1.423239549       H   1  *****    0.173609
   56   H56       -1.771576892    -4.274505989    -0.536580587       H   1  *****    0.217363
   57   H57        7.886080116     3.242330280     0.292849977       H   1  *****    0.190901
   58   H58        6.674274418     2.208247334     1.093092967       H   1  *****    0.141722
   59   H59        6.762792176     2.271029908    -0.694302428       H   1  *****    0.138725
   60   H60        7.546392272    -3.953814745    -0.058899088       H   1  *****    0.190446
   61   H61        6.523904094    -2.804698188    -0.961015659       H   1  *****    0.136720
   62   H62        6.435306238    -2.876231667     0.825834559       H   1  *****    0.140392


@<TRIPOS>BOND
    1      1      6    1
    2      2      3    1
    3      3      4    1
    4      4      5    1
    5      7      6    1
    6      5      6    2
    7      5      8    1
    8      7     10    2
    9      8      9    2
   10     11     10    1
   11     10      9    1
   12      9     12    1
   13     12     13    1
   14     13     14    1
   15     14     17    2
   16     11     14    1
   17     16     11    2
   18     15     16    1
   19     15     18    2
   20     17     18    1
   21     21      2    1
   22      1      2    2
   23      1     22    1
   24     19     20    1
   25     19     22    2
   26     20     21    2
   27      4     23    2
   28     12     24    2
   29      3     25    1
   30     13     26    1
   31     30     31    2
   32     30     32    2
   33     29     33    2
   34     29     34    2
   35     28     35    2
   36     28     36    2
   37     28     37    1
   38     29     38    1
   39     30     39    1
   40      8     27    1
   41     23     27    1
   42     24     27    1
   43     31     27    1
   44     32     27    1
   45     33     27    1
   46     34     27    1
   47     35     27    1
   48     36     27    1
   49     40     41    1
   50     19     40    1
   51     42     43    1
   52     15     42    1
   53      7     44    1
   54     16     45    1
   55     17     46    1
   56     18     47    1
   57     20     48    1
   58     21     49    1
   59     22     50    1
   60     25     51    1
   61     25     52    1
   62     25     53    1
   63     26     54    1
   64     26     55    1
   65     26     56    1
   66     41     57    1
   67     41     58    1
   68     41     59    1
   69     43     60    1
   70     43     61    1
   71     43     62    1
#
#	File Created by: Spartan '14 Export
#

@<TRIPOS>MOLECULE
*****
70 79
SMALL
USER_CHARGES


@<TRIPOS>ATOM
    1   C1         2.170432219    -2.608497172    -0.259930317     C.2   1  *****    0.049568
    2   C2         1.272941078    -3.698516226    -0.334211970     C.2   1  *****    0.035218
    3   N3        -0.117891121    -3.507618622    -0.400484623     N.3   1  *****    0.052741
    4   C4        -0.689965100    -2.274544777    -0.388722613     C.2   1  *****    0.300897
    5   C5         0.222546117    -1.131599215    -0.269919424     C.2   1  *****    0.296296
    6   C6         1.622010660    -1.262513520    -0.232233977     C.2   1  *****   -0.104322
    7   C7         2.356202969    -0.075314751    -0.159366752     C.2   1  *****   -0.020094
    8   N8        -0.392923945     0.039191507    -0.229522055       N   1  *****   -0.476410
    9   C9         0.313000127     1.157210614    -0.175938587     C.2   1  *****    0.279998
   10   C10        1.719055675     1.168926156    -0.136213843     C.2   1  *****   -0.093813
   11   C11        2.378509944     2.462186144    -0.066270667     C.2   1  *****    0.059644
   12   C12       -0.502060602     2.379063404    -0.196576265     C.2   1  *****    0.281214
   13   N13        0.176384372     3.558520950    -0.143230164     N.3   1  *****    0.081923
   14   C14        1.577416430     3.626627721    -0.070452801     C.2   1  *****    0.023091
   15   C15        4.414538835     3.821667106     0.086978371     C.2   1  *****    0.221779
   16   C16        3.769215632     2.581153268     0.013449950     C.2   1  *****   -0.321590
   17   C17        2.217849134     4.868189279     0.001529760     C.2   1  *****   -0.125349
   18   C18        3.591739659     4.968815749     0.079058685     C.2   1  *****   -0.261633
   19   C19        4.084599287    -4.142183004    -0.210137689     C.2   1  *****    0.196928
   20   C20        3.166354633    -5.212682548    -0.278357749     C.2   1  *****   -0.255174
   21   C21        1.805880389    -4.991391193    -0.340460578     C.2   1  *****   -0.123510
   22   C22        3.546405745    -2.849611842    -0.201620769     C.2   1  *****   -0.302623
   23   O23       -1.914377313    -2.098717580    -0.482704838       O   1  *****   -0.441838
   24   O24       -1.736881131     2.316730144    -0.276537948       O   1  *****   -0.465824
   25   C25       -1.013091518    -4.657536705    -0.473795579     C.3   1  *****   -0.470320
   26   C26       -0.615192055     4.783366756    -0.157136361     C.3   1  *****   -0.469635
   27   Nd27      -2.957688359     0.104080465     0.068758983      Nd   1  *****    1.895370
   28   N28       -3.542947090     1.091062338    -2.560149934       N   1  *****    0.895659
   29   N29       -5.577423844    -0.699687326     0.836151814       N   1  *****    0.893703
   30   N30       -1.840993987    -0.047023799     2.758753185       N   1  *****    0.861971
   31   O31       -2.037875722     1.061200568     2.145721819       O   1  *****   -0.576347
   32   O32       -2.160242339    -1.097880351     2.106261143       O   1  *****   -0.606194
   33   O33       -4.858374401    -1.380468705     0.017054709       O   1  *****   -0.617205
   34   O34       -5.018176616     0.349633265     1.316077530       O   1  *****   -0.586053
   35   O35       -2.582732788     0.268592764    -2.334776183       O   1  *****   -0.627812
   36   O36       -4.262659225     1.386808934    -1.546043292       O   1  *****   -0.595299
   37   O37       -3.743865486     1.556404075    -3.659149028       O   1  *****   -0.412794
   38   O38       -6.699405132    -1.030537337     1.135858858       O   1  *****   -0.400547
   39   O39       -1.361334410    -0.091542192     3.871381098       O   1  *****   -0.419738
   40   N40        5.439769780    -4.364857939    -0.155269311     N.3   1  *****    0.144143
   41   C41        5.947672804    -5.716244336    -0.083320683     C.3   1  *****   -0.548448
   42   C42        6.348248761    -3.246158106    -0.079842402     C.3   1  *****   -0.554336
   43   N43        5.783265677     3.922522422     0.163785448     N.3   1  *****    0.129614
   44   C44        6.589117878     2.726409684     0.193678931     C.3   1  *****   -0.563243
   45   C45        6.405248068     5.218559333     0.317784092     C.3   1  *****   -0.552767
   46   H46        3.437020796    -0.119764530    -0.126124327       H   1  *****    0.119619
   47   H47        4.362238159     1.677824253     0.028085466       H   1  *****    0.166808
   48   H48        1.636619361     5.780305736     0.000353473       H   1  *****    0.142238
   49   H49        4.029945232     5.956520628     0.134735256       H   1  *****    0.162743
   50   H50        3.518442892    -6.235781823    -0.285477139       H   1  *****    0.161145
   51   H51        1.150250615    -5.849948225    -0.391629941       H   1  *****    0.141472
   52   H52        4.212348587    -2.000942858    -0.139958880       H   1  *****    0.164090
   53   H53       -0.882131409    -5.289437564     0.407464690       H   1  *****    0.177370
   54   H54       -2.031164409    -4.277884737    -0.501156928       H   1  *****    0.211617
   55   H55       -0.813472147    -5.238001638    -1.377745107       H   1  *****    0.169358
   56   H56       -0.452187115     5.348891942     0.763588756       H   1  *****    0.173585
   57   H57       -1.660918803     4.495838418    -0.226373811       H   1  *****    0.207459
   58   H58       -0.346182503     5.398270439    -1.019360749       H   1  *****    0.169470
   59   H59        7.035206597    -5.687082148    -0.022776890       H   1  *****    0.201605
   60   H60        5.575676394    -6.249958826     0.801441979       H   1  *****    0.169386
   61   H61        5.678847158    -6.302151644    -0.971726187       H   1  *****    0.162466
   62   H62        7.373849742    -3.614492049    -0.078519995       H   1  *****    0.207331
   63   H63        6.201894719    -2.651231735     0.833329538       H   1  *****    0.159886
   64   H64        6.234770167    -2.577123108    -0.943001703       H   1  *****    0.154398
   65   H65        7.642382118     3.002305834     0.233760657       H   1  *****    0.210021
   66   H66        6.438665634     2.115359358    -0.706462987       H   1  *****    0.158251
   67   H67        6.370981640     2.098952434     1.070191703       H   1  *****    0.162982
   68   H68        7.484155202     5.090087416     0.399905936       H   1  *****    0.205389
   69   H69        6.211169894     5.870192557    -0.544032237       H   1  *****    0.163679
   70   H70        6.058248791     5.736794228     1.221521941       H   1  *****    0.170789


@<TRIPOS>BOND
    1      1      6    1
    2      2      3    1
    3      3      4    1
    4      4      5    1
    5      7      6    1
    6      5      6    2
    7      5      8    1
    8      7     10    2
    9      8      9    2
   10     11     10    1
   11     10      9    1
   12      9     12    1
   13     12     13    1
   14     13     14    1
   15     14     17    2
   16     11     14    1
   17     16     11    2
   18     15     16    1
   19     15     18    2
   20     17     18    1
   21     21      2    1
   22      1      2    2
   23      1     22    1
   24     19     20    1
   25     19     22    2
   26     20     21    2
   27      4     23    2
   28     12     24    2
   29      3     25    1
   30     13     26    1
   31     30     31    2
   32     30     32    2
   33     29     33    2
   34     29     34    2
   35     28     35    2
   36     28     36    2
   37     28     37    1
   38     29     38    1
   39     30     39    1
   40      8     27    1
   41     23     27    1
   42     24     27    1
   43     31     27    1
   44     32     27    1
   45     33     27    1
   46     34     27    1
   47     35     27    1
   48     36     27    1
   49     40     41    1
   50     40     42    1
   51     19     40    1
   52     43     44    1
   53     43     45    1
   54     15     43    1
   55      7     46    1
   56     16     47    1
   57     17     48    1
   58     18     49    1
   59     20     50    1
   60     21     51    1
   61     22     52    1
   62     25     53    1
   63     25     54    1
   64     25     55    1
   65     26     56    1
   66     26     57    1
   67     26     58    1
   68     41     59    1
   69     41     60    1
   70     41     61    1
   71     42     62    1
   72     42     63    1
   73     42     64    1
   74     44     65    1
   75     44     66    1
   76     44     67    1
   77     45     68    1
   78     45     69    1
   79     45     70    1
#
#	File Created by: Spartan '14 Export
#

@<TRIPOS>MOLECULE
*****
58 67
SMALL
USER_CHARGES


@<TRIPOS>ATOM
    1   C1         2.475141548     2.434886295    -0.051227898     C.2   1  *****    0.035127
    2   C2         1.694132115     3.621518786    -0.049022988     C.2   1  *****    0.059534
    3   N3         0.303282967     3.570589628    -0.129749339     N.3   1  *****    0.086153
    4   C4        -0.393226146     2.390333420    -0.198614802     C.2   1  *****    0.283781
    5   C5         0.402524160     1.153805876    -0.182908795     C.2   1  *****    0.279120
    6   C6         1.806045828     1.148608108    -0.131234607     C.2   1  *****   -0.081950
    7   C7         2.436874144    -0.098686974    -0.150195789     C.2   1  *****   -0.040793
    8   N8        -0.318469838     0.046464863    -0.247563981       N   1  *****   -0.455016
    9   C9         0.288734132    -1.128365710    -0.284283243     C.2   1  *****    0.289946
   10   C10        1.684052938    -1.273146461    -0.233303499     C.2   1  *****   -0.101122
   11   C11        2.213875755    -2.625107991    -0.258494547     C.2   1  *****    0.034259
   12   C12       -0.629672170    -2.267710262    -0.410011713     C.2   1  *****    0.323875
   13   N13       -0.067296177    -3.516096195    -0.413455961     N.3   1  *****    0.036825
   14   C14        1.311125605    -3.719826221    -0.340007427     C.2   1  *****    0.080760
   15   C15        4.046597999    -4.183786825    -0.208838401     C.2   1  *****   -0.013020
   16   C16        3.583585262    -2.885432647    -0.195610837     C.2   1  *****   -0.150960
   17   C17        1.818089127    -5.029045762    -0.349321858     C.2   1  *****   -0.124708
   18   C18        3.176425077    -5.265463005    -0.283430443     C.2   1  *****   -0.139765
   19   C19        4.462392938     3.781392050     0.115231170     C.2   1  *****    0.004931
   20   C20        3.712327185     4.952118281     0.118771082     C.2   1  *****   -0.143199
   21   C21        2.337346150     4.867292835     0.034911367     C.2   1  *****   -0.125632
   22   C22        3.863973921     2.542202211     0.031030307     C.2   1  *****   -0.164786
   23   O23       -1.621249890     2.351715202    -0.284938990       O   1  *****   -0.434628
   24   O24       -1.845601639    -2.088422145    -0.515501214       O   1  *****   -0.413577
   25   C25       -0.483475247     4.803479773    -0.136629325     C.3   1  *****   -0.464102
   26   C26       -0.983453476    -4.654909117    -0.486226642     C.3   1  *****   -0.459395
   27   Nd27      -2.894273441     0.128703534     0.069743305      Nd   1  *****    1.880313
   28   N28       -3.446704642     1.160438571    -2.540038090       N   1  *****    0.895190
   29   N29       -1.649860382    -0.029894595     2.700525157       N   1  *****    0.847507
   30   N30       -5.477292145    -0.726306211     0.871059644       N   1  *****    0.878035
   31   O31       -4.930364997     0.333715439     1.345410697       O   1  *****   -0.578370
   32   O32       -4.754657879    -1.386691041     0.034630709       O   1  *****   -0.613731
   33   O33       -1.988972329    -1.080594918     2.055681373       O   1  *****   -0.599913
   34   O34       -1.903608006     1.080227241     2.109135347       O   1  *****   -0.570903
   35   O35       -2.501918782     0.315946503    -2.318042560       O   1  *****   -0.634785
   36   O36       -4.162960304     1.458587217    -1.522595094       O   1  *****   -0.592852
   37   O37       -3.633527676     1.639991184    -3.632724822       O   1  *****   -0.396731
   38   O38       -1.102020155    -0.074932953     3.778914868       O   1  *****   -0.403614
   39   O39       -6.583545022    -1.083538405     1.187682480       O   1  *****   -0.379838
   40   N40        5.919869752     3.860543992     0.203489827       N   1  *****    0.696273
   41   O41        6.417994559     4.976720963     0.277417573     O.2   1  *****   -0.384587
   42   O42        6.544201065     2.805856441     0.197403416     O.2   1  *****   -0.392601
   43   N43        5.488070441    -4.423208844    -0.142078154       N   1  *****    0.712230
   44   O44        5.863701968    -5.588678962    -0.146548805     O.2   1  *****   -0.387727
   45   O45        6.221748307    -3.442992192    -0.087071466     O.2   1  *****   -0.396308
   46   H46        3.516805232    -0.155479429    -0.102104642       H   1  *****    0.170865
   47   H47        4.311607389    -2.087726222    -0.133424618       H   1  *****    0.141756
   48   H48        1.145819598    -5.872779717    -0.407094326       H   1  *****    0.149047
   49   H49        3.574605355    -6.271673050    -0.289435602       H   1  *****    0.165677
   50   H50        4.215176411     5.907879065     0.187418633       H   1  *****    0.166120
   51   H51        4.502454071     1.669034526     0.034308264       H   1  *****    0.146634
   52   H52       -0.207775818     5.422122818    -0.993288272       H   1  *****    0.174461
   53   H53       -1.530098875     4.522309424    -0.213979970       H   1  *****    0.209255
   54   H54       -0.323475234     5.357341001     0.791003217       H   1  *****    0.178421
   55   H55       -0.863357732    -5.285577229     0.396723833       H   1  *****    0.181971
   56   H56       -0.794449871    -5.236527118    -1.391009749       H   1  *****    0.174253
   57   H57       -1.994864509    -4.258562729    -0.513941712       H   1  *****    0.212169
   58   H58        1.757716777     5.779211841     0.037662127       H   1  *****    0.150127


@<TRIPOS>BOND
    1      1      6    1
    2      2      3    1
    3      3      4    1
    4      4      5    1
    5      7      6    1
    6      5      6    2
    7      5      8    1
    8      7     10    2
    9      8      9    2
   10     11     10    1
   11     10      9    1
   12      9     12    1
   13     12     13    1
   14     13     14    1
   15     14     17    2
   16     11     14    1
   17     16     11    2
   18     15     16    1
   19     15     18    2
   20     17     18    1
   21     21      2    1
   22      1      2    2
   23      1     22    1
   24     19     20    1
   25     19     22    2
   26     20     21    2
   27      4     23    2
   28     12     24    2
   29      3     25    1
   30     13     26    1
   31     30     31    2
   32     30     32    2
   33     29     33    2
   34     29     34    2
   35     28     35    2
   36     28     36    2
   37     28     37    1
   38     29     38    1
   39     30     39    1
   40      8     27    1
   41     23     27    1
   42     24     27    1
   43     31     27    1
   44     32     27    1
   45     33     27    1
   46     34     27    1
   47     35     27    1
   48     36     27    1
   49     40     41    2
   50     40     42    2
   51     19     40    1
   52     43     44    2
   53     43     45    2
   54     15     43    1
   55      7     46    1
   56     16     47    1
   57     17     48    1
   58     18     49    1
   59     20     50    1
   60     22     51    1
   61     25     52    1
   62     25     53    1
   63     25     54    1
   64     26     55    1
   65     26     56    1
   66     26     57    1
   67     21     58    1
#
#	File Created by: Spartan '14 Export
#

@<TRIPOS>MOLECULE
*****
48 57
SMALL
USER_CHARGES


@<TRIPOS>ATOM
    1   C1         3.559742049     2.022421751    -0.040975137     C.2   1  *****   -0.013594
    2   C2         2.898853108     3.269349705     0.020647211     C.2   1  *****    0.275123
    3   N3         1.515213344     3.321710847     0.127584411     N.3   1  *****   -0.469823
    4   C4         0.683468932     2.248603128     0.172069981     C.2   1  *****    0.456838
    5   C5         1.355559669     0.942735470     0.106045767     C.2   1  *****    0.283287
    6   C6         2.757316822     0.810044734     0.012572182     C.2   1  *****   -0.044850
    7   C7         3.262472328    -0.493800962    -0.021433410     C.2   1  *****   -0.095538
    8   N8         0.532443070    -0.091447107     0.155825209       N   1  *****   -0.461960
    9   C9         1.028948306    -1.317047263     0.135648599     C.2   1  *****    0.285978
   10   C10        2.407438055    -1.597428233     0.046001539     C.2   1  *****   -0.070630
   11   C11        2.821735788    -2.992126016     0.029775861     C.2   1  *****   -0.002798
   12   C12        0.008056649    -2.367606339     0.227701014     C.2   1  *****    0.483189
   13   N13        0.485874380    -3.637141716     0.212543505     N.3   1  *****   -0.505961
   14   C14        1.826775671    -3.991560669     0.114206328     C.2   1  *****    0.282910
   15   C15        4.501261211    -4.741729908    -0.078691368     C.2   1  *****   -0.157291
   16   C16        4.159256894    -3.402709687    -0.065743726     C.2   1  *****   -0.133368
   17   C17        2.173611887    -5.344312404     0.100698146     C.2   1  *****   -0.274216
   18   C18        3.502422520    -5.714786475     0.004534647     C.2   1  *****   -0.035874
   19   C19        5.674059933     3.205779803    -0.199767927     C.2   1  *****   -0.158928
   20   C20        5.001983565     4.428875220    -0.133848900     C.2   1  *****   -0.031419
   21   C21        3.624202622     4.462294257    -0.024027902     C.2   1  *****   -0.279603
   22   C22        4.957770982     2.024926633    -0.153384944     C.2   1  *****   -0.134991
   23   O23       -0.538154668     2.362633116     0.272232479       O   1  *****   -0.545236
   24   O24       -1.193648523    -2.107131131     0.316176346       O   1  *****   -0.529899
   25   Nd25      -2.071570963     0.292142247     0.042476348      Nd   1  *****    1.913118
   26   N26       -1.925946919     1.687190455    -2.451589041       N   1  *****    0.923630
   27   N27       -2.311760292     1.261324689     2.719751180       N   1  *****    0.909534
   28   N28       -4.076229538    -1.605974747    -0.690221057       N   1  *****    0.930267
   29   O29       -4.067395176    -0.995779397     0.441880771       O   1  *****   -0.619664
   30   O30       -3.167985483    -1.238852932    -1.513088002       O   1  *****   -0.620257
   31   O31       -1.466258531     0.346198182     2.402357043       O   1  *****   -0.638502
   32   O32       -3.066614561     1.665777320     1.769074599       O   1  *****   -0.562397
   33   O33       -1.029151182     0.834192831    -2.105220870       O   1  *****   -0.613819
   34   O34       -2.872888039     1.865357091    -1.609501581       O   1  *****   -0.584215
   35   O35       -1.866429523     2.289592796    -3.498210080       O   1  *****   -0.423846
   36   O36       -2.379307021     1.711541733     3.839311476       O   1  *****   -0.413440
   37   O37       -4.882710800    -2.467071468    -0.951537530       O   1  *****   -0.415837
   38   H38        1.057955315     4.225781880     0.170471998       H   1  *****    0.388444
   39   H39       -0.215235215    -4.367845520     0.268226443       H   1  *****    0.396051
   40   H40        4.330932937    -0.649657031    -0.097654924       H   1  *****    0.157278
   41   H41        5.542345415    -5.034309561    -0.154168409       H   1  *****    0.143112
   42   H42        4.943841382    -2.657427527    -0.131318747       H   1  *****    0.133136
   43   H43        1.393343437    -6.096446296     0.164521990       H   1  *****    0.165000
   44   H44        3.764620408    -6.767085062    -0.006600434       H   1  *****    0.134044
   45   H45        6.754174620     3.180700288    -0.288398486       H   1  *****    0.143045
   46   H46        5.558334868     5.359084766    -0.170088012       H   1  *****    0.134316
   47   H47        3.096097248     5.409399106     0.026490459       H   1  *****    0.165853
   48   H48        5.492020496     1.083248205    -0.208708991       H   1  *****    0.133804


@<TRIPOS>BOND
    1      1      6    1
    2      2      3    1
    3      3      4    1
    4      4      5    1
    5      7      6    1
    6      5      6    2
    7      5      8    1
    8      7     10    2
    9      8      9    2
   10     11     10    1
   11     10      9    1
   12      9     12    1
   13     12     13    1
   14     13     14    1
   15     14     17    2
   16     11     14    1
   17     16     11    2
   18     15     16    1
   19     15     18    2
   20     17     18    1
   21     21      2    1
   22      1      2    2
   23      1     22    1
   24     19     20    1
   25     19     22    2
   26     20     21    2
   27      4     23    2
   28     12     24    2
   29     28     29    2
   30     28     30    2
   31     27     31    2
   32     27     32    2
   33     26     33    2
   34     26     34    2
   35     26     35    1
   36     27     36    1
   37     28     37    1
   38      8     25    1
   39     23     25    1
   40     24     25    1
   41     29     25    1
   42     30     25    1
   43     31     25    1
   44     32     25    1
   45     33     25    1
   46     34     25    1
   47      3     38    1
   48     13     39    1
   49      7     40    1
   50     15     41    1
   51     16     42    1
   52     17     43    1
   53     18     44    1
   54     19     45    1
   55     20     46    1
   56     21     47    1
   57     22     48    1
#
#	File Created by: Spartan '14 Export
#

@<TRIPOS>MOLECULE
*****
54 63
SMALL
USER_CHARGES


@<TRIPOS>ATOM
    1   C1         3.349081427     2.179054309    -0.092909614     C.2   1  *****    0.083848
    2   C2         2.636738080     3.396967495     0.038309668     C.2   1  *****    0.056817
    3   N3         1.232911274     3.419910224     0.067010337     N.3   1  *****    0.129554
    4   C4         0.480962359     2.293509628    -0.049374774     C.2   1  *****    0.258015
    5   C5         1.204677425     1.025098765    -0.178681570     C.2   1  *****    0.319468
    6   C6         2.605897414     0.936502917    -0.185849540     C.2   1  *****   -0.150516
    7   C7         3.153586990    -0.347250834    -0.263035109     C.2   1  *****    0.005147
    8   N8         0.414164116    -0.032111625    -0.245557956       N   1  *****   -0.523899
    9   C9         0.944367152    -1.242938857    -0.285135461     C.2   1  *****    0.373516
   10   C10        2.328578702    -1.475617426    -0.304099601     C.2   1  *****   -0.181532
   11   C11        2.768660768    -2.857542983    -0.340465589     C.2   1  *****    0.092622
   12   C12       -0.048822824    -2.318617017    -0.259829647     C.2   1  *****    0.285326
   13   N13        0.423662559    -3.592993652    -0.280497125     N.3   1  *****    0.098969
   14   C14        1.796135174    -3.888209732    -0.323675919     C.2   1  *****    0.039270
   15   C15        4.524459293    -4.535471685    -0.407250122     C.2   1  *****   -0.112137
   16   C16        4.123121764    -3.214044615    -0.383353533     C.2   1  *****   -0.157978
   17   C17        2.213355999    -5.224182478    -0.348710733     C.2   1  *****   -0.143010
   18   C18        3.560257258    -5.541384757    -0.389088043     C.2   1  *****   -0.110147
   19   C19        5.441645852     3.411933043    -0.023995390     C.2   1  *****   -0.107393
   20   C20        4.731989705     4.604015359     0.106424860     C.2   1  *****   -0.101019
   21   C21        3.347925699     4.598827715     0.136672653     C.2   1  *****   -0.163933
   22   C22        4.749122187     2.220736102    -0.122060576     C.2   1  *****   -0.168625
   23   O23       -0.761206734     2.312402895    -0.054587252       O   1  *****   -0.507195
   24   O24       -1.262306578    -2.055089487    -0.217601925       O   1  *****   -0.492903
   25   Nd25      -2.138222983     0.236293713     0.010995205      Nd   1  *****    1.953873
   26   N26       -2.521626995     0.957844648    -2.738726792       N   1  *****    0.871075
   27   N27       -0.037022935     0.029691633     2.549777427       N   1  *****    1.019982
   28   N28       -4.809400523    -0.166071499     0.888592645       N   1  *****    0.860554
   29   O29       -4.179688002     0.926095584     1.116829064       O   1  *****   -0.555806
   30   O30       -4.134696297    -1.067202183     0.258412905       O   1  *****   -0.616229
   31   O31       -1.261975275     0.169262222     2.126751280       O   1  *****   -0.726050
   32   O32        0.636022961     1.049003071     2.725218953       O   1  *****   -0.512770
   33   O33       -1.720935697     0.019155964    -2.368463335       O   1  *****   -0.616244
   34   O34       -3.164794967     1.529935006    -1.793048919       O   1  *****   -0.600292
   35   O35       -2.646309078     1.272599809    -3.898178381       O   1  *****   -0.389828
   36   O36        0.390611022    -1.111194344     2.729356395       O   1  *****   -0.529544
   37   O37       -5.948591210    -0.346306308     1.238763021       O   1  *****   -0.380925
   38   C38        0.522430824     4.681505171     0.260995852     C.3   1  *****   -0.518651
   39   C39       -0.559979537    -4.672162325    -0.226175043     C.3   1  *****   -0.501027
   40   H40        4.228656327    -0.470580559    -0.261570235       H   1  *****    0.143827
   41   H41        5.579157519    -4.784325739    -0.438803723       H   1  *****    0.135089
   42   H42        4.876244766    -2.434606411    -0.397138791       H   1  *****    0.129223
   43   H43        1.485046003    -6.022418816    -0.335085440       H   1  *****    0.139289
   44   H44        3.858554817    -6.584104595    -0.406124178       H   1  *****    0.138849
   45   H45        6.525452183     3.415721810    -0.048445806       H   1  *****    0.133229
   46   H46        5.259750870     5.548300543     0.185615282       H   1  *****    0.137002
   47   H47        2.820016998     5.536465876     0.237926337       H   1  *****    0.143423
   48   H48        5.305061018     1.296041029    -0.225746902       H   1  *****    0.132324
   49   H49        0.723426773     5.362221462    -0.569383386       H   1  *****    0.176231
   50   H50       -0.539921580     4.457149503     0.297068629       H   1  *****    0.228652
   51   H51        0.832240907     5.140376348     1.201926234       H   1  *****    0.193900
   52   H52       -0.398446111    -5.280682616     0.666026835       H   1  *****    0.189205
   53   H53       -0.485049778    -5.295343935    -1.119885572       H   1  *****    0.174337
   54   H54       -1.545244445    -4.216201224    -0.181041098       H   1  *****    0.225037


@<TRIPOS>BOND
    1      1      6    1
    2      2      3    1
    3      3      4    1
    4      4      5    1
    5      7      6    1
    6      5      6    2
    7      5      8    1
    8      7     10    2
    9      8      9    2
   10     11     10    1
   11     10      9    1
   12      9     12    1
   13     12     13    1
   14     13     14    1
   15     14     17    2
   16     11     14    1
   17     16     11    2
   18     15     16    1
   19     15     18    2
   20     17     18    1
   21     21      2    1
   22      1      2    2
   23      1     22    1
   24     19     20    1
   25     19     22    2
   26     20     21    2
   27      4     23    2
   28     12     24    2
   29     28     29    2
   30     28     30    2
   31     27     31    2
   32     27     32    2
   33     26     33    2
   34     26     34    2
   35     26     35    1
   36     27     36    1
   37     28     37    1
   38      8     25    1
   39     23     25    1
   40     24     25    1
   41     29     25    1
   42     30     25    1
   43     31     25    1
   44     32     25    1
   45     33     25    1
   46     34     25    1
   47      3     38    1
   48     13     39    1
   49      7     40    1
   50     15     41    1
   51     16     42    1
   52     17     43    1
   53     18     44    1
   54     19     45    1
   55     20     46    1
   56     21     47    1
   57     22     48    1
   58     38     49    1
   59     38     50    1
   60     38     51    1
   61     39     52    1
   62     39     53    1
   63     39     54    1
#
#	File Created by: Spartan '14 Export
#

@<TRIPOS>MOLECULE
*****
56 65
SMALL
USER_CHARGES


@<TRIPOS>ATOM
    1   C1         1.500404714    -3.778379418     0.322937967     C.2   1  *****   -0.004725
    2   C2         0.207304131    -4.323705039     0.507727340     C.2   1  *****    0.157919
    3   N3        -0.901104558    -3.474448503     0.584031039     N.3   1  *****    0.041647
    4   C4        -0.855280528    -2.115329880     0.554089746     C.2   1  *****    0.304583
    5   C5         0.473968020    -1.557271029     0.280360547     C.2   1  *****    0.312280
    6   C6         1.643057584    -2.338046691     0.205719707     C.2   1  *****   -0.114240
    7   C7         2.843977785    -1.644258764     0.026436917     C.2   1  *****   -0.036204
    8   N8         0.472681280    -0.240856586     0.152982117       N   1  *****   -0.494811
    9   C9         1.616315143     0.404139557    -0.005243100     C.2   1  *****    0.266585
   10   C10        2.864183071    -0.248559611    -0.063255417     C.2   1  *****   -0.063194
   11   C11        4.052261132     0.574531935    -0.204815256     C.2   1  *****   -0.044121
   12   C12        1.462810093     1.864114386    -0.066632112     C.2   1  *****    0.321185
   13   N13        2.638691373     2.551994956    -0.098879315     N.3   1  *****    0.007318
   14   C14        3.909581261     1.982533178    -0.212022879     C.2   1  *****    0.207811
   15   C15        6.450155490     0.864842171    -0.452782732     C.2   1  *****   -0.148372
   16   C16        5.344912998     0.045314960    -0.328890845     C.2   1  *****   -0.116709
   17   C17        5.025961046     2.812337355    -0.339696551     C.2   1  *****   -0.229956
   18   C18        6.284912726     2.251366863    -0.457402227     C.2   1  *****   -0.053973
   19   C19        2.403431707    -6.031796012     0.372276347     C.2   1  *****   -0.141402
   20   C20        1.119001858    -6.546580087     0.558916720     C.2   1  *****   -0.068950
   21   C21        0.024607311    -5.703153290     0.628138302     C.2   1  *****   -0.203455
   22   C22        2.583153714    -4.666748759     0.258556303     C.2   1  *****   -0.122152
   23   O23       -1.848208229    -1.402207900     0.722004234       O   1  *****   -0.407334
   24   O24        0.364069328     2.417799999    -0.029240139       O   1  *****   -0.415999
   25   Nd25      -1.797168805     1.003486725    -0.051134074      Nd   1  *****    1.873298
   26   N26       -4.556767649     1.392547875    -0.590498787       N   1  *****    0.883003
   27   N27       -1.148887259     0.078941998    -2.729321858       N   1  *****    0.865230
   28   N28       -1.383240126     2.562932364     2.306308727       N   1  *****    0.905173
   29   O29       -2.100621781     2.988055328     1.340187913       O   1  *****   -0.588761
   30   O30       -1.066480305     1.319320227     2.257266902       O   1  *****   -0.626823
   31   O31       -1.855564259    -0.625680785    -1.926234853       O   1  *****   -0.620600
   32   O32       -0.736866861     1.195588193    -2.255628008       O   1  *****   -0.568535
   33   O33       -4.131441375     0.556906484     0.292195969       O   1  *****   -0.613750
   34   O34       -3.642176694     2.027009455    -1.227338364       O   1  *****   -0.574288
   35   O35       -5.731889690     1.559022005    -0.804271369       O   1  *****   -0.389235
   36   O36       -0.869051805    -0.294368964    -3.846116229       O   1  *****   -0.409748
   37   O37       -1.000828229     3.285347850     3.201772551       O   1  *****   -0.420457
   38   O38       -2.117621091    -4.055883323     0.849002590     O.3   1  *****   -0.153082
   39   C39       -2.984032821    -3.997041477    -0.304615673     C.3   1  *****   -0.426528
   40   O40        2.558398296     3.922181870    -0.167483695     O.3   1  *****   -0.147579
   41   C41        2.234508059     4.495362669     1.115962503     C.3   1  *****   -0.395016
   42   H42        3.774224456    -2.194889038    -0.029622156       H   1  *****    0.147146
   43   H43        7.438868704     0.431014389    -0.549887727       H   1  *****    0.139243
   44   H44        5.480780113    -1.030090303    -0.333895933       H   1  *****    0.126210
   45   H45        4.883359528     3.883533795    -0.361814791       H   1  *****    0.171102
   46   H46        7.147173581     2.901313535    -0.560289275       H   1  *****    0.132108
   47   H47        3.257663970    -6.697113639     0.318678826       H   1  *****    0.138912
   48   H48        0.970490304    -7.616722309     0.654816311       H   1  *****    0.134410
   49   H49       -0.972835559    -6.087787167     0.787722942       H   1  *****    0.168123
   50   H50        3.583991875    -4.275393422     0.116671356       H   1  *****    0.127997
   51   H51       -3.898841128    -4.483701858     0.031829321       H   1  *****    0.211432
   52   H52       -3.185390940    -2.961705326    -0.580220073       H   1  *****    0.223398
   53   H53       -2.542794387    -4.547709153    -1.140189291       H   1  *****    0.172330
   54   H54        2.238817321     5.568960937     0.930430205       H   1  *****    0.209415
   55   H55        1.244590092     4.178076962     1.447112924       H   1  *****    0.188262
   56   H56        2.998896578     4.235087676     1.853977652       H   1  *****    0.163879


@<TRIPOS>BOND
    1      1      6    1
    2      2      3    1
    3      3      4    1
    4      4      5    1
    5      7      6    1
    6      5      6    2
    7      5      8    1
    8      7     10    2
    9      8      9    2
   10     11     10    1
   11     10      9    1
   12      9     12    1
   13     12     13    1
   14     13     14    1
   15     14     17    2
   16     11     14    1
   17     16     11    2
   18     15     16    1
   19     15     18    2
   20     17     18    1
   21     21      2    1
   22      1      2    2
   23      1     22    1
   24     19     20    1
   25     19     22    2
   26     20     21    2
   27      4     23    2
   28     12     24    2
   29     28     29    2
   30     28     30    2
   31     27     31    2
   32     27     32    2
   33     26     33    2
   34     26     34    2
   35     26     35    1
   36     27     36    1
   37     28     37    1
   38      8     25    1
   39     23     25    1
   40     24     25    1
   41     29     25    1
   42     30     25    1
   43     31     25    1
   44     32     25    1
   45     33     25    1
   46     34     25    1
   47     38     39    1
   48      3     38    1
   49     40     41    1
   50     13     40    1
   51      7     42    1
   52     15     43    1
   53     16     44    1
   54     17     45    1
   55     18     46    1
   56     19     47    1
   57     20     48    1
   58     21     49    1
   59     22     50    1
   60     39     51    1
   61     39     52    1
   62     39     53    1
   63     41     54    1
   64     41     55    1
   65     41     56    1
#
#	File Created by: Spartan '14 Export
#

@<TRIPOS>MOLECULE
*****
64 73
SMALL
USER_CHARGES


@<TRIPOS>ATOM
    1   C1        -1.540898760    -3.795128695    -0.199572562     C.2   1  *****    0.002126
    2   C2        -2.862759902    -3.295624454    -0.288902270     C.2   1  *****    0.128175
    3   N3        -3.107691146    -1.909540118    -0.365137053     N.3   1  *****   -0.020957
    4   C4        -2.112923470    -0.977899319    -0.358988246     C.2   1  *****    0.359497
    5   C5        -0.743631864    -1.486833654    -0.217125423     C.2   1  *****    0.309983
    6   C6        -0.433688465    -2.857635021    -0.167052561     C.2   1  *****   -0.118278
    7   C7         0.922280898    -3.187757962    -0.079504073     C.2   1  *****   -0.026266
    8   N8         0.175141100    -0.535682372    -0.177448709       N   1  *****   -0.513989
    9   C9         1.455976946    -0.861362280    -0.113227758     C.2   1  *****    0.297986
   10   C10        1.905590750    -2.193398297    -0.059226765     C.2   1  *****   -0.097795
   11   C11        3.337716060    -2.414396890     0.021763328     C.2   1  *****    0.006638
   12   C12        2.363533909     0.294181765    -0.136510285     C.2   1  *****    0.291959
   13   N13        3.697736333     0.014356402    -0.065747321     N.3   1  *****    0.068616
   14   C14        4.206948717    -1.296636519     0.019725793     C.2   1  *****    0.086200
   15   C15        5.267559198    -3.879478881     0.195286401     C.2   1  *****   -0.143987
   16   C16        3.901880322    -3.695760798     0.109990250     C.2   1  *****   -0.131458
   17   C17        5.589103887    -1.488302891     0.104634678     C.2   1  *****   -0.141466
   18   C18        6.110081295    -2.766500106     0.192136841     C.2   1  *****   -0.082701
   19   C19       -2.427200672    -6.055854102    -0.155999028     C.2   1  *****   -0.150302
   20   C20       -3.723968525    -5.546227239    -0.239836538     C.2   1  *****   -0.083115
   21   C21       -3.943408484    -4.182050259    -0.305907519     C.2   1  *****   -0.145261
   22   C22       -1.356474171    -5.184451825    -0.136512367     C.2   1  *****   -0.124629
   23   O23       -2.334603912     0.234476737    -0.474815671       O   1  *****   -0.417284
   24   O24        1.929970379     1.447451513    -0.228631037       O   1  *****   -0.429264
   25   Nd25      -0.570970274     1.929577178     0.072025845      Nd   1  *****    1.888936
   26   N26        0.312525112     2.713401664    -2.538511478       N   1  *****    0.886770
   27   N27       -2.237907505     4.127268369     0.767283804       N   1  *****    0.890704
   28   N28       -0.339241997     0.894775500     2.783580409       N   1  *****    0.881534
   29   O29        0.628633749     1.469863430     2.170005272       O   1  *****   -0.589547
   30   O30       -1.421779898     0.782460589     2.111239655       O   1  *****   -0.620318
   31   O31       -2.616952228     3.190767413    -0.030563638       O   1  *****   -0.622544
   32   O32       -1.059355392     3.988179897     1.251755849       O   1  *****   -0.583815
   33   O33       -0.237221520     1.574313595    -2.313967305       O   1  *****   -0.630466
   34   O34        0.331975485     3.519791311    -1.545904838       O   1  *****   -0.593009
   35   O35        0.788380953     2.994444829    -3.614726663       O   1  *****   -0.404774
   36   O36       -2.946917810     5.063920577     1.041794084       O   1  *****   -0.392389
   37   O37       -0.225253292     0.467232056     3.910731310       O   1  *****   -0.415572
   38   N38       -4.451709763    -1.499855432    -0.449655420     N.3   1  *****    0.026550
   39   C39       -4.771916738    -0.911673302    -1.748681230     C.3   1  *****   -0.562431
   40   C40       -4.865420017    -0.699329559     0.703158108     C.3   1  *****   -0.556360
   41   N41        4.633466513     1.064575700    -0.055706160     N.3   1  *****    0.033747
   42   C42        4.651301576     1.818743627    -1.308051798     C.3   1  *****   -0.572866
   43   C43        4.535492567     1.880545460     1.153145957     C.3   1  *****   -0.595732
   44   H44        1.216062244    -4.228397338    -0.032734937       H   1  *****    0.143608
   45   H45        5.677897687    -4.880617589     0.264952092       H   1  *****    0.138010
   46   H46        3.251125178    -4.562523504     0.115751963       H   1  *****    0.125593
   47   H47        6.224898239    -0.614290492     0.101243065       H   1  *****    0.109451
   48   H48        7.184909924    -2.897095220     0.259917279       H   1  *****    0.135043
   49   H49       -2.258807019    -7.125654200    -0.103993737       H   1  *****    0.139687
   50   H50       -4.573565152    -6.220715507    -0.252998344       H   1  *****    0.135265
   51   H51       -4.940623250    -3.769766362    -0.368704631       H   1  *****    0.112038
   52   H52       -0.350948472    -5.583422766    -0.068598444       H   1  *****    0.125806
   53   H53       -5.857461703    -0.794984638    -1.793493010       H   1  *****    0.209844
   54   H54       -4.298721205     0.062097256    -1.912381940       H   1  *****    0.206625
   55   H55       -4.470623321    -1.604307174    -2.538136499       H   1  *****    0.182482
   56   H56       -5.952574604    -0.601724447     0.652036132       H   1  *****    0.201745
   57   H57       -4.413159119     0.297365264     0.729211851       H   1  *****    0.221516
   58   H58       -4.611359196    -1.237052733     1.618907834       H   1  *****    0.187487
   59   H59        5.542204509     2.451598309    -1.292616135       H   1  *****    0.209354
   60   H60        3.766015818     2.446249230    -1.455561045       H   1  *****    0.208570
   61   H61        4.745203015     1.119924175    -2.142266618       H   1  *****    0.183986
   62   H62        5.402282622     2.545813424     1.167010871       H   1  *****    0.214201
   63   H63        3.619677335     2.478550898     1.203099650       H   1  *****    0.227473
   64   H64        4.589162254     1.228797760     2.027862521       H   1  *****    0.189373


@<TRIPOS>BOND
    1      1      6    1
    2      2      3    1
    3      3      4    1
    4      4      5    1
    5      7      6    1
    6      5      6    2
    7      5      8    1
    8      7     10    2
    9      8      9    2
   10     11     10    1
   11     10      9    1
   12      9     12    1
   13     12     13    1
   14     13     14    1
   15     14     17    2
   16     11     14    1
   17     16     11    2
   18     15     16    1
   19     15     18    2
   20     17     18    1
   21     21      2    1
   22      1      2    2
   23      1     22    1
   24     19     20    1
   25     19     22    2
   26     20     21    2
   27      4     23    2
   28     12     24    2
   29     28     29    2
   30     28     30    2
   31     27     31    2
   32     27     32    2
   33     26     33    2
   34     26     34    2
   35     26     35    1
   36     27     36    1
   37     28     37    1
   38      8     25    1
   39     23     25    1
   40     24     25    1
   41     29     25    1
   42     30     25    1
   43     31     25    1
   44     32     25    1
   45     33     25    1
   46     34     25    1
   47     38     39    1
   48     38     40    1
   49      3     38    1
   50     41     42    1
   51     41     43    1
   52     13     41    1
   53      7     44    1
   54     15     45    1
   55     16     46    1
   56     17     47    1
   57     18     48    1
   58     19     49    1
   59     20     50    1
   60     21     51    1
   61     22     52    1
   62     39     53    1
   63     39     54    1
   64     39     55    1
   65     40     56    1
   66     40     57    1
   67     40     58    1
   68     42     59    1
   69     42     60    1
   70     42     61    1
   71     43     62    1
   72     43     63    1
   73     43     64    1
#
#	File Created by: Spartan '14 Export
#

@<TRIPOS>MOLECULE
*****
52 61
SMALL
USER_CHARGES


@<TRIPOS>ATOM
    1   C1         3.416137689    -2.225888159     0.022346899     C.2   1  *****    0.036097
    2   C2         4.250836634    -1.083937222     0.001645045     C.2   1  *****    0.164988
    3   N3         3.656366624     0.176495975    -0.120154851     N.3   1  *****   -0.236659
    4   C4         2.317912546     0.455605573    -0.175281112     C.2   1  *****    0.347520
    5   C5         1.461723540    -0.738581571    -0.119531615     C.2   1  *****    0.298807
    6   C6         1.974255349    -2.049878159    -0.059443086     C.2   1  *****   -0.075729
    7   C7         1.034889012    -3.085706821    -0.073682777     C.2   1  *****   -0.057910
    8   N8         0.168352724    -0.468551451    -0.166989272       N   1  *****   -0.487013
    9   C9        -0.704934005    -1.460472391    -0.198564868     C.2   1  *****    0.322013
   10   C10       -0.335046896    -2.818073383    -0.155838531     C.2   1  *****   -0.103402
   11   C11       -1.387381475    -3.821278404    -0.190576038     C.2   1  *****    0.046004
   12   C12       -2.098835171    -1.012248179    -0.317977382     C.2   1  *****    0.389957
   13   N13       -3.009310448    -2.031869019    -0.348335711     N.3   1  *****   -0.276112
   14   C14       -2.736339867    -3.403680027    -0.274146421     C.2   1  *****    0.169889
   15   C15       -2.150325246    -6.126911533    -0.184397720     C.2   1  *****   -0.142794
   16   C16       -1.128495587    -5.198480414    -0.148325783     C.2   1  *****   -0.142959
   17   C17       -3.770618611    -4.341424055    -0.309016358     C.2   1  *****   -0.224506
   18   C18       -3.473075911    -5.692369850    -0.264320686     C.2   1  *****   -0.039759
   19   C19        5.401308319    -3.613450228     0.205810238     C.2   1  *****   -0.136644
   20   C20        6.204537713    -2.473522514     0.181298893     C.2   1  *****   -0.037309
   21   C21        5.638950201    -1.214572339     0.080742092     C.2   1  *****   -0.232352
   22   C22        4.028447941    -3.482737269     0.127205412     C.2   1  *****   -0.145706
   23   O23        1.881111956     1.596116532    -0.274169898       O   1  *****   -0.421703
   24   O24       -2.419689912     0.169924517    -0.388919398       O   1  *****   -0.409761
   25   Nd25      -0.683656764     1.989169612     0.118117871      Nd   1  *****    1.890780
   26   N26        0.006370337     2.733615937    -2.554173867       N   1  *****    0.892210
   27   N27       -0.295952037     0.828133489     2.756568191       N   1  *****    0.858647
   28   N28       -2.324670950     4.152741167     0.913470359       N   1  *****    0.872743
   29   O29       -1.114516889     4.030092540     1.323880918       O   1  *****   -0.576743
   30   O30       -2.738070342     3.205362582     0.144122206       O   1  *****   -0.605643
   31   O31       -1.412201066     0.734999677     2.138876851       O   1  *****   -0.608582
   32   O32        0.624913703     1.462308508     2.126912115       O   1  *****   -0.577822
   33   O33       -0.407836958     1.552731075    -2.247541532       O   1  *****   -0.639596
   34   O34        0.045409530     3.564957713    -1.582738389       O   1  *****   -0.589109
   35   O35        0.336904570     3.023518220    -3.677885718       O   1  *****   -0.388073
   36   O36       -0.108256577     0.330766100     3.843427924       O   1  *****   -0.402605
   37   O37       -3.026121659     5.080071233     1.226249008       O   1  *****   -0.374403
   38   N38        4.540054072     1.378181501    -0.196065079       N   1  *****    0.804626
   39   O39        4.613333479     1.874749889    -1.285740264     O.2   1  *****   -0.319358
   40   O40        5.070424087     1.677511456     0.842399236     O.2   1  *****   -0.328670
   41   N41       -4.431200987    -1.591041418    -0.475877093       N   1  *****    0.804251
   42   O42       -5.094786716    -1.749128404     0.516071405     O.2   1  *****   -0.325270
   43   O43       -4.722842769    -1.152602269    -1.553477833     O.2   1  *****   -0.317071
   44   H44        1.374745865    -4.111871032    -0.028598910       H   1  *****    0.150935
   45   H45       -1.922714853    -7.186033233    -0.149291947       H   1  *****    0.145773
   46   H46       -0.103783034    -5.545774194    -0.087920536       H   1  *****    0.137379
   47   H47       -4.802899033    -4.021009390    -0.358270497       H   1  *****    0.167880
   48   H48       -4.283737459    -6.411993515    -0.290628539       H   1  *****    0.137482
   49   H49        5.848625894    -4.597203899     0.288502399       H   1  *****    0.143397
   50   H50        7.283166482    -2.563676821     0.245125569       H   1  *****    0.137160
   51   H51        6.274843065    -0.339085741     0.078870482       H   1  *****    0.168470
   52   H52        3.412731123    -4.373985464     0.152024335       H   1  *****    0.136254


@<TRIPOS>BOND
    1      1      6    1
    2      2      3    1
    3      3      4    1
    4      4      5    1
    5      7      6    1
    6      5      6    2
    7      5      8    1
    8      7     10    2
    9      8      9    2
   10     11     10    1
   11     10      9    1
   12      9     12    1
   13     12     13    1
   14     13     14    1
   15     14     17    2
   16     11     14    1
   17     16     11    2
   18     15     16    1
   19     15     18    2
   20     17     18    1
   21     21      2    1
   22      1      2    2
   23      1     22    1
   24     19     20    1
   25     19     22    2
   26     20     21    2
   27      4     23    2
   28     12     24    2
   29     28     29    2
   30     28     30    2
   31     27     31    2
   32     27     32    2
   33     26     33    2
   34     26     34    2
   35     26     35    1
   36     27     36    1
   37     28     37    1
   38      8     25    1
   39     23     25    1
   40     24     25    1
   41     29     25    1
   42     30     25    1
   43     31     25    1
   44     32     25    1
   45     33     25    1
   46     34     25    1
   47     38     39    2
   48     38     40    2
   49      3     38    1
   50     41     42    2
   51     41     43    2
   52     13     41    1
   53      7     44    1
   54     15     45    1
   55     16     46    1
   56     17     47    1
   57     18     48    1
   58     19     49    1
   59     20     50    1
   60     21     51    1
   61     22     52    1
